MODEL 1
REMARK VINA RESULT:      22.8      0.000      0.000
REMARK  3 active torsions:
REMARK  status: ('A' for Active; 'I' for Inactive)
REMARK    1  A    between atoms: C_7  and  N_1 
REMARK    2  A    between atoms: N_3  and  C_8 
REMARK    3  A    between atoms: C_11  and  C_4 
ROOT
ATOM      1  N   UNL d   1      46.213 -18.410  42.433  0.00  0.00    -0.230 N 
ATOM      2  N   UNL d   1      46.384 -18.336  41.638  0.00  0.00    -0.165 NA
ATOM      3  C   UNL d   1      46.186 -19.225  42.619  0.00  0.00     0.084 A 
ATOM      4  C   UNL d   1      46.465 -19.091  41.320  0.00  0.00     0.103 A 
ATOM      5  C   UNL d   1      46.344 -19.637  41.919  0.00  0.00     0.040 A 
ATOM      6  C   UNL d   1      46.645 -19.183  40.498  0.00  0.00     0.022 C 
ENDROOT
BRANCH   1   7
ATOM      7  C   UNL d   1      46.091 -17.788  42.950  0.00  0.00     0.083 A 
ATOM      8  C   UNL d   1      46.598 -17.680  43.587  0.00  0.00     0.021 A 
ATOM      9  C   UNL d   1      46.475 -17.053  44.108  0.00  0.00     0.025 A 
ATOM     10  C   UNL d   1      45.848 -16.529  43.998  0.00  0.00     0.127 A 
ATOM     11  C   UNL d   1      45.339 -16.638  43.359  0.00  0.00     0.025 A 
ATOM     12  C   UNL d   1      45.465 -17.269  42.836  0.00  0.00     0.021 A 
BRANCH  10  13
ATOM     13  N   UNL d   1      45.729 -15.894  44.532  0.00  0.00    -0.114 N 
ATOM     14  O   UNL d   1      46.334 -15.345  44.784  0.00  0.00    -0.532 OA
ATOM     15  O   UNL d   1      44.996 -15.707  44.893  0.00  0.00    -0.532 OA
ENDBRANCH  10  13
ENDBRANCH   1   7
BRANCH   3  16
ATOM     16  C   UNL d   1      46.034 -19.597  43.344  0.00  0.00     0.018 A 
ATOM     17  C   UNL d   1      46.645 -19.619  43.913  0.00  0.00     0.002 A 
ATOM     18  C   UNL d   1      46.511 -19.990  44.650  0.00  0.00     0.000 A 
ATOM     19  C   UNL d   1      45.777 -20.330  44.805  0.00  0.00     0.000 A 
ATOM     20  C   UNL d   1      45.181 -20.305  44.243  0.00  0.00     0.000 A 
ATOM     21  C   UNL d   1      45.294 -19.944  43.512  0.00  0.00     0.002 A 
ENDBRANCH   3  16
TORSDOF 3
ENDMDL
MODEL 2
REMARK VINA RESULT:      25.6      1.009      2.369
REMARK  3 active torsions:
REMARK  status: ('A' for Active; 'I' for Inactive)
REMARK    1  A    between atoms: C_7  and  N_1 
REMARK    2  A    between atoms: N_3  and  C_8 
REMARK    3  A    between atoms: C_11  and  C_4 
ROOT
ATOM      1  N   UNL d   1      46.273 -18.433  44.061  0.00  0.00    -0.230 N 
ATOM      2  N   UNL d   1      46.332 -18.942  44.697  0.00  0.00    -0.165 NA
ATOM      3  C   UNL d   1      46.443 -18.865  43.365  0.00  0.00     0.084 A 
ATOM      4  C   UNL d   1      46.536 -19.688  44.413  0.00  0.00     0.103 A 
ATOM      5  C   UNL d   1      46.605 -19.643  43.598  0.00  0.00     0.040 A 
ATOM      6  C   UNL d   1      46.636 -20.330  44.955  0.00  0.00     0.022 C 
ENDROOT
BRANCH   1   7
ATOM      7  C   UNL d   1      46.081 -17.640  44.107  0.00  0.00     0.083 A 
ATOM      8  C   UNL d   1      46.638 -17.099  44.375  0.00  0.00     0.021 A 
ATOM      9  C   UNL d   1      46.444 -16.298  44.422  0.00  0.00     0.025 A 
ATOM     10  C   UNL d   1      45.696 -16.032  44.204  0.00  0.00     0.127 A 
ATOM     11  C   UNL d   1      45.137 -16.575  43.936  0.00  0.00     0.025 A 
ATOM     12  C   UNL d   1      45.333 -17.379  43.889  0.00  0.00     0.021 A 
BRANCH  10  13
ATOM     13  N   UNL d   1      45.505 -15.217  44.255  0.00  0.00    -0.114 N 
ATOM     14  O   UNL d   1      45.912 -14.591  43.839  0.00  0.00    -0.532 OA
ATOM     15  O   UNL d   1      44.885 -14.901  44.722  0.00  0.00    -0.532 OA
ENDBRANCH  10  13
ENDBRANCH   1   7
BRANCH   3  16
ATOM     16  C   UNL d   1      46.459 -18.611  42.576  0.00  0.00     0.018 A 
ATOM     17  C   UNL d   1      46.289 -19.167  41.977  0.00  0.00     0.002 A 
ATOM     18  C   UNL d   1      46.300 -18.930  41.176  0.00  0.00     0.000 A 
ATOM     19  C   UNL d   1      46.480 -18.149  40.988  0.00  0.00     0.000 A 
ATOM     20  C   UNL d   1      46.647 -17.606  41.579  0.00  0.00     0.000 A 
ATOM     21  C   UNL d   1      46.640 -17.822  42.374  0.00  0.00     0.002 A 
ENDBRANCH   3  16
TORSDOF 3
ENDMDL
