MODEL 1
REMARK VINA RESULT:      -3.2      0.000      0.000
REMARK  8 active torsions:
REMARK  status: ('A' for Active; 'I' for Inactive)
REMARK    1  A    between atoms: C_22  and  N_1 
REMARK       I    between atoms: N_8  and  C_12 
REMARK    2  A    between atoms: C_12  and  C_27 
REMARK    3  A    between atoms: C_23  and  N_13 
REMARK    4  A    between atoms: C_30  and  C_22 
REMARK    5  A    between atoms: C_26  and  C_23 
REMARK    6  A    between atoms: C_27  and  C_31 
REMARK    7  A    between atoms: C_32  and  C_30 
REMARK    8  A    between atoms: C_31  and  C_32 
ROOT
ATOM      1  C   UNL d   1      33.241  20.507 -22.505  0.00  0.00     0.002 C 
ENDROOT
BRANCH   1   2
ATOM      2  C   UNL d   1      32.846  20.112 -23.119  0.00  0.00     0.005 C 
BRANCH   2   3
ATOM      3  C   UNL d   1      33.003  19.310 -23.266  0.00  0.00     0.061 C 
BRANCH   3   4
ATOM      4  C   UNL d   1      32.807  18.982 -24.006  0.00  0.00     0.265 C 
ATOM      5  N   UNL d   1      32.406  18.254 -24.051  0.00  0.00    -0.269 N 
ATOM      6  C   UNL d   1      32.216  17.936 -24.788  0.00  0.00     0.102 A 
ATOM      7  C   UNL d   1      32.198  17.849 -23.365  0.00  0.00     0.102 A 
ATOM      8  C   UNL d   1      31.817  17.211 -24.837  0.00  0.00     0.100 A 
ATOM      9  N   UNL d   1      31.610  16.808 -24.150  0.00  0.00    -0.300 N 
ATOM     10  C   UNL d   1      31.799  17.124 -23.415  0.00  0.00     0.100 A 
ATOM     11  O   UNL d   1      33.011  19.381 -24.701  0.00  0.00    -0.267 OA
BRANCH   9  12
ATOM     12  C   UNL d   1      31.212  16.086 -24.199  0.00  0.00     0.080 C 
BRANCH  12  13
ATOM     13  C   UNL d   1      30.467  16.001 -23.861  0.00  0.00     0.018 A 
ATOM     14  C   UNL d   1      29.798  16.241 -24.278  0.00  0.00     0.002 A 
ATOM     15  C   UNL d   1      29.045  16.157 -23.940  0.00  0.00     0.000 A 
ATOM     16  C   UNL d   1      28.967  15.833 -23.185  0.00  0.00     0.000 A 
ATOM     17  C   UNL d   1      29.643  15.593 -22.768  0.00  0.00     0.000 A 
ATOM     18  C   UNL d   1      30.390  15.677 -23.106  0.00  0.00     0.002 A 
ENDBRANCH  12  13
ENDBRANCH   9  12
ENDBRANCH   3   4
ENDBRANCH   2   3
ENDBRANCH   1   2
BRANCH   1  19
ATOM     19  C   UNL d   1      33.091  21.306 -22.357  0.00  0.00     0.019 C 
BRANCH  19  20
ATOM     20  C   UNL d   1      32.470  21.532 -21.864  0.00  0.00     0.085 C 
BRANCH  20  21
ATOM     21  N   UNL d   1      32.609  22.053 -21.237  0.00  0.00    -0.249 N 
ATOM     22  C   UNL d   1      32.679  21.766 -20.461  0.00  0.00     0.268 A 
ATOM     23  C   UNL d   1      32.816  22.287 -19.838  0.00  0.00     0.076 A 
ATOM     24  O   UNL d   1      32.610  20.956 -20.315  0.00  0.00    -0.267 OA
ATOM     25  C   UNL d   1      32.885  21.997 -19.070  0.00  0.00     0.033 A 
ATOM     26  C   UNL d   1      32.885  23.096 -19.984  0.00  0.00     0.090 A 
ATOM     27  C   UNL d   1      33.023  22.519 -18.444  0.00  0.00     0.119 A 
ATOM     28  O   UNL d   1      33.116  22.397 -17.634  0.00  0.00    -0.300 OA
ATOM     29  C   UNL d   1      33.092  23.328 -18.589  0.00  0.00     0.121 A 
ATOM     30  C   UNL d   1      33.241  23.129 -17.284  0.00  0.00     0.304 A 
ATOM     31  O   UNL d   1      33.227  23.701 -17.868  0.00  0.00    -0.299 OA
ATOM     32  C   UNL d   1      33.023  23.616 -19.360  0.00  0.00     0.046 A 
ATOM     33  N   UNL d   1      32.817  23.384 -20.751  0.00  0.00    -0.218 NA
ATOM     34  C   UNL d   1      32.678  22.863 -21.382  0.00  0.00     0.208 A 
ATOM     35  S   UNL d   1      32.609  23.158 -22.156  0.00  0.00    -0.038 SA
ENDBRANCH  20  21
ENDBRANCH  19  20
ENDBRANCH   1  19
TORSDOF 8
ENDMDL
