MODEL 1
REMARK VINA RESULT:      -7.4      0.000      0.000
REMARK  4 active torsions:
REMARK  status: ('A' for Active; 'I' for Inactive)
REMARK       I    between atoms: N_3  and  C_1 
REMARK       I    between atoms: N_7  and  C_1 
REMARK    1  A    between atoms: C_2  and  N_3 
REMARK    2  A    between atoms: C_4  and  C_5 
REMARK    3  A    between atoms: O_13  and  C_4 
REMARK    4  A    between atoms: C_15  and  N_7 
ROOT
ATOM      1  C   UNL d   1     -49.535  12.977  23.153  0.00  0.00     0.097 A 
ATOM      2  C   UNL d   1     -50.532  13.964  22.889  0.00  0.00     0.065 A 
ATOM      3  C   UNL d   1     -49.790  13.760  23.186  0.00  0.00     0.025 A 
ATOM      4  C   UNL d   1     -50.022  12.397  22.822  0.00  0.00     0.075 A 
ATOM      5  C   UNL d   1     -51.023  13.378  22.555  0.00  0.00     0.006 A 
ATOM      6  C   UNL d   1     -50.763  12.600  22.525  0.00  0.00     0.013 A 
ATOM      7 CL   UNL d   1     -49.764  11.610  22.790  0.00  0.00    -0.081 Cl
ENDROOT
BRANCH   1   8
ATOM      8  N   UNL d   1     -48.793  12.773  23.450  0.00  0.00    -0.190 NA
ATOM      9  C   UNL d   1     -48.112  13.052  23.080  0.00  0.00     0.369 C 
ATOM     10  N   UNL d   1     -47.370  12.846  23.380  0.00  0.00    -0.191 NA
ATOM     11  O   UNL d   1     -48.172  13.536  22.413  0.00  0.00    -0.242 OA
BRANCH  10  12
ATOM     12  C   UNL d   1     -46.685  13.126  23.010  0.00  0.00     0.086 A 
ATOM     13  C   UNL d   1     -46.171  12.588  22.643  0.00  0.00     0.019 A 
ATOM     14  C   UNL d   1     -45.490  12.879  22.277  0.00  0.00     0.002 A 
ATOM     15  C   UNL d   1     -45.324  13.688  22.276  0.00  0.00     0.000 A 
ATOM     16  C   UNL d   1     -45.837  14.206  22.641  0.00  0.00     0.002 A 
ATOM     17  C   UNL d   1     -46.518  13.935  23.009  0.00  0.00     0.019 A 
ENDBRANCH  10  12
ENDBRANCH   1   8
BRANCH   2  18
ATOM     18  C   UNL d   1     -50.792  14.753  22.920  0.00  0.00     0.296 C 
ATOM     19  O   UNL d   1     -50.880  15.184  22.221  0.00  0.00    -0.259 OA
BRANCH  18  20
ATOM     20  O   UNL d   1     -50.963  15.104  23.646  0.00  0.00    -0.296 OA
ATOM     21  C   UNL d   1     -51.064  15.922  23.697  0.00  0.00     0.185 C 
ENDBRANCH  18  20
ENDBRANCH   2  18
TORSDOF 4
ENDMDL
MODEL 2
REMARK VINA RESULT:      -7.2      1.311      4.143
REMARK  4 active torsions:
REMARK  status: ('A' for Active; 'I' for Inactive)
REMARK       I    between atoms: N_3  and  C_1 
REMARK       I    between atoms: N_7  and  C_1 
REMARK    1  A    between atoms: C_2  and  N_3 
REMARK    2  A    between atoms: C_4  and  C_5 
REMARK    3  A    between atoms: O_13  and  C_4 
REMARK    4  A    between atoms: C_15  and  N_7 
ROOT
ATOM      1  C   UNL d   1     -48.095  12.260  23.503  0.00  0.00     0.097 A 
ATOM      2  C   UNL d   1     -46.713  12.530  23.271  0.00  0.00     0.065 A 
ATOM      3  C   UNL d   1     -47.488  12.799  23.361  0.00  0.00     0.025 A 
ATOM      4  C   UNL d   1     -47.929  11.453  23.555  0.00  0.00     0.075 A 
ATOM      5  C   UNL d   1     -46.546  11.715  23.323  0.00  0.00     0.006 A 
ATOM      6  C   UNL d   1     -47.156  11.184  23.465  0.00  0.00     0.013 A 
ATOM      7 CL   UNL d   1     -48.541  10.914  23.698  0.00  0.00    -0.081 Cl
ENDROOT
BRANCH   1   8
ATOM      8  N   UNL d   1     -48.870  12.529  23.593  0.00  0.00    -0.190 NA
ATOM      9  C   UNL d   1     -49.214  12.994  23.006  0.00  0.00     0.369 C 
ATOM     10  N   UNL d   1     -49.991  13.262  23.099  0.00  0.00    -0.191 NA
ATOM     11  O   UNL d   1     -48.785  13.190  22.328  0.00  0.00    -0.242 OA
BRANCH  10  12
ATOM     12  C   UNL d   1     -50.338  13.728  22.511  0.00  0.00     0.086 A 
ATOM     13  C   UNL d   1     -50.297  14.554  22.568  0.00  0.00     0.019 A 
ATOM     14  C   UNL d   1     -50.647  15.010  21.975  0.00  0.00     0.002 A 
ATOM     15  C   UNL d   1     -51.030  14.651  21.338  0.00  0.00     0.000 A 
ATOM     16  C   UNL d   1     -51.064  13.837  21.293  0.00  0.00     0.002 A 
ATOM     17  C   UNL d   1     -50.722  13.369  21.873  0.00  0.00     0.019 A 
ENDBRANCH  10  12
ENDBRANCH   1   8
BRANCH   2  18
ATOM     18  C   UNL d   1     -46.097  13.070  23.127  0.00  0.00     0.296 C 
ATOM     19  O   UNL d   1     -45.908  13.637  23.697  0.00  0.00    -0.259 OA
BRANCH  18  20
ATOM     20  O   UNL d   1     -45.677  13.040  22.419  0.00  0.00    -0.296 OA
ATOM     21  C   UNL d   1     -45.261  13.703  22.156  0.00  0.00     0.185 C 
ENDBRANCH  18  20
ENDBRANCH   2  18
TORSDOF 4
ENDMDL
MODEL 3
REMARK VINA RESULT:      -5.6      9.796     10.741
REMARK  4 active torsions:
REMARK  status: ('A' for Active; 'I' for Inactive)
REMARK       I    between atoms: N_3  and  C_1 
REMARK       I    between atoms: N_7  and  C_1 
REMARK    1  A    between atoms: C_2  and  N_3 
REMARK    2  A    between atoms: C_4  and  C_5 
REMARK    3  A    between atoms: O_13  and  C_4 
REMARK    4  A    between atoms: C_15  and  N_7 
ROOT
ATOM      1  C   UNL d   1     -39.705  15.230  18.584  0.00  0.00     0.097 A 
ATOM      2  C   UNL d   1     -39.506  14.570  17.334  0.00  0.00     0.065 A 
ATOM      3  C   UNL d   1     -39.230  14.781  18.083  0.00  0.00     0.025 A 
ATOM      4  C   UNL d   1     -40.456  15.470  18.338  0.00  0.00     0.075 A 
ATOM      5  C   UNL d   1     -40.265  14.812  17.086  0.00  0.00     0.006 A 
ATOM      6  C   UNL d   1     -40.733  15.260  17.591  0.00  0.00     0.013 A 
ATOM      7 CL   UNL d   1     -40.932  15.922  18.844  0.00  0.00    -0.081 Cl
ENDROOT
BRANCH   1   8
ATOM      8  N   UNL d   1     -39.429  15.441  19.332  0.00  0.00    -0.190 NA
ATOM      9  C   UNL d   1     -39.282  14.857  19.895  0.00  0.00     0.369 C 
ATOM     10  N   UNL d   1     -39.005  15.071  20.644  0.00  0.00    -0.191 NA
ATOM     11  O   UNL d   1     -39.412  14.062  19.710  0.00  0.00    -0.242 OA
BRANCH  10  12
ATOM     12  C   UNL d   1     -38.858  14.486  21.210  0.00  0.00     0.086 A 
ATOM     13  C   UNL d   1     -38.107  14.134  21.247  0.00  0.00     0.019 A 
ATOM     14  C   UNL d   1     -37.971  13.552  21.816  0.00  0.00     0.002 A 
ATOM     15  C   UNL d   1     -38.569  13.323  22.338  0.00  0.00     0.000 A 
ATOM     16  C   UNL d   1     -39.303  13.676  22.291  0.00  0.00     0.002 A 
ATOM     17  C   UNL d   1     -39.455  14.257  21.732  0.00  0.00     0.019 A 
ENDBRANCH  10  12
ENDBRANCH   1   8
BRANCH   2  18
ATOM     18  C   UNL d   1     -39.030  14.116  16.825  0.00  0.00     0.296 C 
ATOM     19  O   UNL d   1     -39.077  13.292  16.846  0.00  0.00    -0.259 OA
BRANCH  18  20
ATOM     20  O   UNL d   1     -38.514  14.487  16.302  0.00  0.00    -0.296 OA
ATOM     21  C   UNL d   1     -38.027  14.036  15.810  0.00  0.00     0.185 C 
ENDBRANCH  18  20
ENDBRANCH   2  18
TORSDOF 4
ENDMDL
MODEL 4
REMARK VINA RESULT:      -5.4      9.985     10.757
REMARK  4 active torsions:
REMARK  status: ('A' for Active; 'I' for Inactive)
REMARK       I    between atoms: N_3  and  C_1 
REMARK       I    between atoms: N_7  and  C_1 
REMARK    1  A    between atoms: C_2  and  N_3 
REMARK    2  A    between atoms: C_4  and  C_5 
REMARK    3  A    between atoms: O_13  and  C_4 
REMARK    4  A    between atoms: C_15  and  N_7 
ROOT
ATOM      1  C   UNL d   1     -38.587  14.027  18.312  0.00  0.00     0.097 A 
ATOM      2  C   UNL d   1     -39.512  14.586  17.380  0.00  0.00     0.065 A 
ATOM      3  C   UNL d   1     -39.075  14.648  18.077  0.00  0.00     0.025 A 
ATOM      4  C   UNL d   1     -38.535  13.344  17.851  0.00  0.00     0.075 A 
ATOM      5  C   UNL d   1     -39.460  13.897  16.914  0.00  0.00     0.006 A 
ATOM      6  C   UNL d   1     -38.971  13.282  17.154  0.00  0.00     0.013 A 
ATOM      7 CL   UNL d   1     -38.044  12.721  18.089  0.00  0.00    -0.081 Cl
ENDROOT
BRANCH   1   8
ATOM      8  N   UNL d   1     -38.151  14.089  19.009  0.00  0.00    -0.190 NA
ATOM      9  C   UNL d   1     -38.539  14.154  19.733  0.00  0.00     0.369 C 
ATOM     10  N   UNL d   1     -38.099  14.215  20.430  0.00  0.00    -0.191 NA
ATOM     11  O   UNL d   1     -39.365  14.158  19.760  0.00  0.00    -0.242 OA
BRANCH  10  12
ATOM     12  C   UNL d   1     -38.487  14.281  21.157  0.00  0.00     0.086 A 
ATOM     13  C   UNL d   1     -38.680  15.033  21.450  0.00  0.00     0.019 A 
ATOM     14  C   UNL d   1     -39.068  15.086  22.177  0.00  0.00     0.002 A 
ATOM     15  C   UNL d   1     -39.260  14.406  22.604  0.00  0.00     0.000 A 
ATOM     16  C   UNL d   1     -39.066  13.672  22.305  0.00  0.00     0.002 A 
ATOM     17  C   UNL d   1     -38.680  13.601  21.584  0.00  0.00     0.019 A 
ENDBRANCH  10  12
ENDBRANCH   1   8
BRANCH   2  18
ATOM     18  C   UNL d   1     -40.006  15.211  17.139  0.00  0.00     0.296 C 
ATOM     19  O   UNL d   1     -39.672  15.922  16.883  0.00  0.00    -0.259 OA
BRANCH  18  20
ATOM     20  O   UNL d   1     -40.825  15.121  17.157  0.00  0.00    -0.296 OA
ATOM     21  C   UNL d   1     -41.315  15.752  16.946  0.00  0.00     0.185 C 
ENDBRANCH  18  20
ENDBRANCH   2  18
TORSDOF 4
ENDMDL
MODEL 5
REMARK VINA RESULT:      -4.8      2.170      3.146
REMARK  4 active torsions:
REMARK  status: ('A' for Active; 'I' for Inactive)
REMARK       I    between atoms: N_3  and  C_1 
REMARK       I    between atoms: N_7  and  C_1 
REMARK    1  A    between atoms: C_2  and  N_3 
REMARK    2  A    between atoms: C_4  and  C_5 
REMARK    3  A    between atoms: O_13  and  C_4 
REMARK    4  A    between atoms: C_15  and  N_7 
ROOT
ATOM      1  C   UNL d   1     -47.089  13.079  22.928  0.00  0.00     0.097 A 
ATOM      2  C   UNL d   1     -48.435  12.712  22.629  0.00  0.00     0.065 A 
ATOM      3  C   UNL d   1     -47.724  12.561  23.018  0.00  0.00     0.025 A 
ATOM      4  C   UNL d   1     -47.165  13.748  22.450  0.00  0.00     0.075 A 
ATOM      5  C   UNL d   1     -48.512  13.388  22.146  0.00  0.00     0.006 A 
ATOM      6  C   UNL d   1     -47.875  13.899  22.061  0.00  0.00     0.013 A 
ATOM      7 CL   UNL d   1     -46.525  14.267  22.361  0.00  0.00    -0.081 Cl
ENDROOT
BRANCH   1   8
ATOM      8  N   UNL d   1     -46.378  12.928  23.317  0.00  0.00    -0.190 NA
ATOM      9  C   UNL d   1     -45.982  12.217  23.188  0.00  0.00     0.369 C 
ATOM     10  N   UNL d   1     -45.269  12.068  23.580  0.00  0.00    -0.191 NA
ATOM     11  O   UNL d   1     -46.297  11.656  22.670  0.00  0.00    -0.242 OA
BRANCH  10  12
ATOM     12  C   UNL d   1     -44.871  11.355  23.451  0.00  0.00     0.086 A 
ATOM     13  C   UNL d   1     -45.220  10.643  23.694  0.00  0.00     0.019 A 
ATOM     14  C   UNL d   1     -44.814   9.937  23.561  0.00  0.00     0.002 A 
ATOM     15  C   UNL d   1     -44.074   9.938  23.194  0.00  0.00     0.000 A 
ATOM     16  C   UNL d   1     -43.740  10.645  22.960  0.00  0.00     0.002 A 
ATOM     17  C   UNL d   1     -44.131  11.356  23.084  0.00  0.00     0.019 A 
ENDBRANCH  10  12
ENDBRANCH   1   8
BRANCH   2  18
ATOM     18  C   UNL d   1     -49.078  12.192  22.716  0.00  0.00     0.296 C 
ATOM     19  O   UNL d   1     -49.258  11.656  22.114  0.00  0.00    -0.259 OA
BRANCH  18  20
ATOM     20  O   UNL d   1     -49.536  12.211  23.402  0.00  0.00    -0.296 OA
ATOM     21  C   UNL d   1     -50.236  11.775  23.444  0.00  0.00     0.185 C 
ENDBRANCH  18  20
ENDBRANCH   2  18
TORSDOF 4
ENDMDL
MODEL 6
REMARK VINA RESULT:      -4.7      1.802      4.651
REMARK  4 active torsions:
REMARK  status: ('A' for Active; 'I' for Inactive)
REMARK       I    between atoms: N_3  and  C_1 
REMARK       I    between atoms: N_7  and  C_1 
REMARK    1  A    between atoms: C_2  and  N_3 
REMARK    2  A    between atoms: C_4  and  C_5 
REMARK    3  A    between atoms: O_13  and  C_4 
REMARK    4  A    between atoms: C_15  and  N_7 
ROOT
ATOM      1  C   UNL d   1     -46.478  12.518  23.075  0.00  0.00     0.097 A 
ATOM      2  C   UNL d   1     -45.223  12.534  22.396  0.00  0.00     0.065 A 
ATOM      3  C   UNL d   1     -45.907  12.925  22.642  0.00  0.00     0.025 A 
ATOM      4  C   UNL d   1     -46.366  11.722  23.263  0.00  0.00     0.075 A 
ATOM      5  C   UNL d   1     -45.110  11.730  22.586  0.00  0.00     0.006 A 
ATOM      6  C   UNL d   1     -45.683  11.332  23.018  0.00  0.00     0.013 A 
ATOM      7 CL   UNL d   1     -46.942  11.315  23.698  0.00  0.00    -0.081 Cl
ENDROOT
BRANCH   1   8
ATOM      8  N   UNL d   1     -47.162  12.908  23.320  0.00  0.00    -0.190 NA
ATOM      9  C   UNL d   1     -47.775  13.038  22.785  0.00  0.00     0.369 C 
ATOM     10  N   UNL d   1     -48.460  13.429  23.034  0.00  0.00    -0.191 NA
ATOM     11  O   UNL d   1     -47.705  12.777  22.004  0.00  0.00    -0.242 OA
BRANCH  10  12
ATOM     12  C   UNL d   1     -49.076  13.560  22.498  0.00  0.00     0.086 A 
ATOM     13  C   UNL d   1     -49.504  12.913  22.204  0.00  0.00     0.019 A 
ATOM     14  C   UNL d   1     -50.117  13.055  21.670  0.00  0.00     0.002 A 
ATOM     15  C   UNL d   1     -50.302  13.825  21.433  0.00  0.00     0.000 A 
ATOM     16  C   UNL d   1     -49.874  14.452  21.730  0.00  0.00     0.002 A 
ATOM     17  C   UNL d   1     -49.261  14.329  22.262  0.00  0.00     0.019 A 
ENDBRANCH  10  12
ENDBRANCH   1   8
BRANCH   2  18
ATOM     18  C   UNL d   1     -44.643  12.941  21.959  0.00  0.00     0.296 C 
ATOM     19  O   UNL d   1     -44.834  13.654  21.589  0.00  0.00    -0.259 OA
BRANCH  18  20
ATOM     20  O   UNL d   1     -43.882  12.633  21.895  0.00  0.00    -0.296 OA
ATOM     21  C   UNL d   1     -43.316  13.022  21.436  0.00  0.00     0.185 C 
ENDBRANCH  18  20
ENDBRANCH   2  18
TORSDOF 4
ENDMDL
