MODEL 1
REMARK VINA RESULT:      -5.3      0.000      0.000
REMARK  4 active torsions:
REMARK  status: ('A' for Active; 'I' for Inactive)
REMARK    1  A    between atoms: C_2  and  S_1 
REMARK    2  A    between atoms: N_3  and  S_1 
REMARK    3  A    between atoms: C_6  and  N_3 
REMARK    4  A    between atoms: C_4  and  C_6 
REMARK       I    between atoms: N_5  and  C_4 
ROOT
ATOM      1  S   UNL d   1     -41.598-122.798 -53.336  0.00  0.00     0.287 S 
ATOM      2  O   UNL d   1     -42.073-123.478 -53.449  0.00  0.00    -0.198 OA
ATOM      3  O   UNL d   1     -41.123-122.110 -53.234  0.00  0.00    -0.198 OA
ENDROOT
BRANCH   1   4
ATOM      4  C   UNL d   1     -41.862-122.493 -54.087  0.00  0.00     0.126 A 
ATOM      5  C   UNL d   1     -42.350-121.823 -54.113  0.00  0.00     0.071 A 
ATOM      6 CL   UNL d   1     -42.593-121.431 -53.404  0.00  0.00    -0.082 Cl
ATOM      7  C   UNL d   1     -42.608-121.526 -54.848  0.00  0.00     0.012 A 
ATOM      8  C   UNL d   1     -42.370-121.907 -55.539  0.00  0.00     0.002 A 
ATOM      9  C   UNL d   1     -41.881-122.579 -55.505  0.00  0.00     0.012 A 
ATOM     10  C   UNL d   1     -41.627-122.872 -54.782  0.00  0.00     0.071 A 
ATOM     11 CL   UNL d   1     -41.141-123.539 -54.746  0.00  0.00    -0.082 Cl
ENDBRANCH   1   4
BRANCH   1  12
ATOM     12  N   UNL d   1     -41.336-123.097 -52.597  0.00  0.00    -0.152 NA
BRANCH  12  13
ATOM     13  C   UNL d   1     -41.788-122.949 -51.908  0.00  0.00     0.173 C 
BRANCH  13  14
ATOM     14  C   UNL d   1     -41.603-123.355 -51.203  0.00  0.00     0.285 C 
ATOM     15  N   UNL d   1     -42.016-123.203 -50.503  0.00  0.00    -0.271 N 
ATOM     16  C   UNL d   1     -42.610-122.634 -50.553  0.00  0.00     0.083 A 
ATOM     17  C   UNL d   1     -41.781-123.637 -49.854  0.00  0.00     0.083 A 
ATOM     18  C   UNL d   1     -43.109-122.368 -49.958  0.00  0.00     0.019 A 
ATOM     19  C   UNL d   1     -43.138-122.602 -49.171  0.00  0.00     0.002 A 
ATOM     20  C   UNL d   1     -42.689-123.147 -48.785  0.00  0.00     0.002 A 
ATOM     21  C   UNL d   1     -42.081-123.614 -49.085  0.00  0.00     0.019 A 
ATOM     22  O   UNL d   1     -41.123-123.794 -51.226  0.00  0.00    -0.265 OA
ENDBRANCH  13  14
ENDBRANCH  12  13
ENDBRANCH   1  12
TORSDOF 4
ENDMDL
MODEL 2
REMARK VINA RESULT:      -5.0      1.466      4.437
REMARK  4 active torsions:
REMARK  status: ('A' for Active; 'I' for Inactive)
REMARK    1  A    between atoms: C_2  and  S_1 
REMARK    2  A    between atoms: N_3  and  S_1 
REMARK    3  A    between atoms: C_6  and  N_3 
REMARK    4  A    between atoms: C_4  and  C_6 
REMARK       I    between atoms: N_5  and  C_4 
ROOT
ATOM      1  S   UNL d   1     -41.747-122.861 -50.968  0.00  0.00     0.287 S 
ATOM      2  O   UNL d   1     -41.996-123.649 -51.105  0.00  0.00    -0.198 OA
ATOM      3  O   UNL d   1     -41.501-122.068 -50.819  0.00  0.00    -0.198 OA
ENDROOT
BRANCH   1   4
ATOM      4  C   UNL d   1     -42.127-122.877 -50.205  0.00  0.00     0.126 A 
ATOM      5  C   UNL d   1     -42.812-122.427 -50.075  0.00  0.00     0.071 A 
ATOM      6 CL   UNL d   1     -43.144-121.948 -50.688  0.00  0.00    -0.082 Cl
ATOM      7  C   UNL d   1     -43.183-122.444 -49.328  0.00  0.00     0.012 A 
ATOM      8  C   UNL d   1     -42.859-122.911 -48.732  0.00  0.00     0.002 A 
ATOM      9  C   UNL d   1     -42.173-123.359 -48.870  0.00  0.00     0.012 A 
ATOM     10  C   UNL d   1     -41.807-123.343 -49.604  0.00  0.00     0.071 A 
ATOM     11 CL   UNL d   1     -41.125-123.789 -49.744  0.00  0.00    -0.082 Cl
ENDBRANCH   1   4
BRANCH   1  12
ATOM     12  N   UNL d   1     -41.372-122.844 -51.718  0.00  0.00    -0.152 NA
BRANCH  12  13
ATOM     13  C   UNL d   1     -41.836-122.776 -52.412  0.00  0.00     0.173 C 
BRANCH  13  14
ATOM     14  C   UNL d   1     -41.530-123.050 -53.137  0.00  0.00     0.285 C 
ATOM     15  N   UNL d   1     -41.736-122.689 -53.851  0.00  0.00    -0.271 N 
ATOM     16  C   UNL d   1     -42.255-122.052 -53.793  0.00  0.00     0.083 A 
ATOM     17  C   UNL d   1     -41.399-123.010 -54.520  0.00  0.00     0.083 A 
ATOM     18  C   UNL d   1     -42.558-121.587 -54.399  0.00  0.00     0.019 A 
ATOM     19  C   UNL d   1     -42.418-121.642 -55.207  0.00  0.00     0.002 A 
ATOM     20  C   UNL d   1     -41.952-122.162 -55.608  0.00  0.00     0.002 A 
ATOM     21  C   UNL d   1     -41.494-122.776 -55.306  0.00  0.00     0.019 A 
ATOM     22  O   UNL d   1     -41.123-123.559 -53.119  0.00  0.00    -0.265 OA
ENDBRANCH  13  14
ENDBRANCH  12  13
ENDBRANCH   1  12
TORSDOF 4
ENDMDL
MODEL 3
REMARK VINA RESULT:      -4.0      1.833      4.694
REMARK  4 active torsions:
REMARK  status: ('A' for Active; 'I' for Inactive)
REMARK    1  A    between atoms: C_2  and  S_1 
REMARK    2  A    between atoms: N_3  and  S_1 
REMARK    3  A    between atoms: C_6  and  N_3 
REMARK    4  A    between atoms: C_4  and  C_6 
REMARK       I    between atoms: N_5  and  C_4 
ROOT
ATOM      1  S   UNL d   1     -41.760-122.742 -50.080  0.00  0.00     0.287 S 
ATOM      2  O   UNL d   1     -42.158-122.019 -49.932  0.00  0.00    -0.198 OA
ATOM      3  O   UNL d   1     -41.365-123.473 -50.219  0.00  0.00    -0.198 OA
ENDROOT
BRANCH   1   4
ATOM      4  C   UNL d   1     -42.199-123.109 -49.448  0.00  0.00     0.126 A 
ATOM      5  C   UNL d   1     -42.949-123.431 -49.598  0.00  0.00     0.071 A 
ATOM      6 CL   UNL d   1     -43.289-123.404 -50.372  0.00  0.00    -0.082 Cl
ATOM      7  C   UNL d   1     -43.377-123.790 -48.979  0.00  0.00     0.012 A 
ATOM      8  C   UNL d   1     -43.044-123.816 -48.226  0.00  0.00     0.002 A 
ATOM      9  C   UNL d   1     -42.292-123.491 -48.083  0.00  0.00     0.012 A 
ATOM     10  C   UNL d   1     -41.870-123.138 -48.692  0.00  0.00     0.071 A 
ATOM     11 CL   UNL d   1     -41.123-122.814 -48.552  0.00  0.00    -0.082 Cl
ENDBRANCH   1   4
BRANCH   1  12
ATOM     12  N   UNL d   1     -41.326-122.381 -50.702  0.00  0.00    -0.152 NA
BRANCH  12  13
ATOM     13  C   UNL d   1     -41.335-122.725 -51.465  0.00  0.00     0.173 C 
BRANCH  13  14
ATOM     14  C   UNL d   1     -41.237-122.237 -52.134  0.00  0.00     0.285 C 
ATOM     15  N   UNL d   1     -41.285-122.548 -52.899  0.00  0.00    -0.271 N 
ATOM     16  C   UNL d   1     -41.433-123.357 -52.949  0.00  0.00     0.083 A 
ATOM     17  C   UNL d   1     -41.180-122.012 -53.504  0.00  0.00     0.083 A 
ATOM     18  C   UNL d   1     -41.509-123.817 -53.624  0.00  0.00     0.019 A 
ATOM     19  C   UNL d   1     -41.457-123.587 -54.411  0.00  0.00     0.002 A 
ATOM     20  C   UNL d   1     -41.320-122.856 -54.719  0.00  0.00     0.002 A 
ATOM     21  C   UNL d   1     -41.195-122.148 -54.318  0.00  0.00     0.019 A 
ATOM     22  O   UNL d   1     -41.123-121.604 -52.031  0.00  0.00    -0.265 OA
ENDBRANCH  13  14
ENDBRANCH  12  13
ENDBRANCH   1  12
TORSDOF 4
ENDMDL
MODEL 4
REMARK VINA RESULT:      -3.1      1.262      1.912
REMARK  4 active torsions:
REMARK  status: ('A' for Active; 'I' for Inactive)
REMARK    1  A    between atoms: C_2  and  S_1 
REMARK    2  A    between atoms: N_3  and  S_1 
REMARK    3  A    between atoms: C_6  and  N_3 
REMARK    4  A    between atoms: C_4  and  C_6 
REMARK       I    between atoms: N_5  and  C_4 
ROOT
ATOM      1  S   UNL d   1     -42.019-122.278 -52.227  0.00  0.00     0.287 S 
ATOM      2  O   UNL d   1     -42.790-122.206 -52.545  0.00  0.00    -0.198 OA
ATOM      3  O   UNL d   1     -41.239-122.352 -51.917  0.00  0.00    -0.198 OA
ENDROOT
BRANCH   1   4
ATOM      4  C   UNL d   1     -41.722-122.479 -53.000  0.00  0.00     0.126 A 
ATOM      5  C   UNL d   1     -41.413-123.235 -53.141  0.00  0.00     0.071 A 
ATOM      6 CL   UNL d   1     -41.385-123.817 -52.528  0.00  0.00    -0.082 Cl
ATOM      7  C   UNL d   1     -41.123-123.430 -53.898  0.00  0.00     0.012 A 
ATOM      8  C   UNL d   1     -41.150-122.862 -54.495  0.00  0.00     0.002 A 
ATOM      9  C   UNL d   1     -41.462-122.106 -54.346  0.00  0.00     0.012 A 
ATOM     10  C   UNL d   1     -41.747-121.914 -53.601  0.00  0.00     0.071 A 
ATOM     11 CL   UNL d   1     -42.057-121.162 -53.451  0.00  0.00    -0.082 Cl
ENDBRANCH   1   4
BRANCH   1  12
ATOM     12  N   UNL d   1     -42.310-122.080 -51.465  0.00  0.00    -0.152 NA
BRANCH  12  13
ATOM     13  C   UNL d   1     -42.086-122.541 -50.803  0.00  0.00     0.173 C 
BRANCH  13  14
ATOM     14  C   UNL d   1     -42.525-122.484 -50.097  0.00  0.00     0.285 C 
ATOM     15  N   UNL d   1     -42.252-122.828 -49.396  0.00  0.00    -0.271 N 
ATOM     16  C   UNL d   1     -41.530-123.221 -49.447  0.00  0.00     0.083 A 
ATOM     17  C   UNL d   1     -42.735-122.732 -48.746  0.00  0.00     0.083 A 
ATOM     18  C   UNL d   1     -41.123-123.612 -48.851  0.00  0.00     0.019 A 
ATOM     19  C   UNL d   1     -41.333-123.707 -48.063  0.00  0.00     0.002 A 
ATOM     20  C   UNL d   1     -41.988-123.442 -47.675  0.00  0.00     0.002 A 
ATOM     21  C   UNL d   1     -42.618-123.006 -47.976  0.00  0.00     0.019 A 
ATOM     22  O   UNL d   1     -43.090-122.160 -50.120  0.00  0.00    -0.265 OA
ENDBRANCH  13  14
ENDBRANCH  12  13
ENDBRANCH   1  12
TORSDOF 4
ENDMDL
