MODEL 1
REMARK VINA RESULT:      -8.5      0.000      0.000
REMARK  6 active torsions:
REMARK  status: ('A' for Active; 'I' for Inactive)
REMARK    1  A    between atoms: N_4  and  C_1 
REMARK    2  A    between atoms: C_10  and  C_3 
REMARK       I    between atoms: C_9  and  N_4 
REMARK       I    between atoms: N_7  and  C_8 
REMARK    3  A    between atoms: C_8  and  C_15 
REMARK    4  A    between atoms: C_16  and  C_9 
REMARK    5  A    between atoms: S_14  and  C_16 
REMARK    6  A    between atoms: C_15  and  S_14 
ROOT
ATOM      1  N   UNL d   1      51.516  34.059  52.475  0.00  0.00    -0.182 NA
ATOM      2  C   UNL d   1      50.736  34.015  52.692  0.00  0.00     0.288 C 
ATOM      3  O   UNL d   1      50.503  33.540  53.324  0.00  0.00    -0.265 OA
ENDROOT
BRANCH   2   4
ATOM      4  C   UNL d   1      50.168  34.450  52.276  0.00  0.00     0.098 C 
BRANCH   4   5
ATOM      5  S   UNL d   1      49.573  34.828  52.783  0.00  0.00    -0.076 SA
BRANCH   5   6
ATOM      6  C   UNL d   1      48.903  35.250  52.426  0.00  0.00     0.097 C 
BRANCH   6   7
ATOM      7  C   UNL d   1      48.403  35.758  52.917  0.00  0.00     0.272 C 
ATOM      8  N   UNL d   1      47.608  35.980  52.653  0.00  0.00    -0.267 N 
ATOM      9  C   UNL d   1      47.312  35.690  51.890  0.00  0.00     0.110 A 
ATOM     10  C   UNL d   1      47.115  36.491  53.152  0.00  0.00     0.110 A 
ATOM     11  C   UNL d   1      46.520  35.909  51.623  0.00  0.00     0.142 A 
ATOM     12  O   UNL d   1      46.021  36.418  52.114  0.00  0.00    -0.300 OA
ATOM     13  C   UNL d   1      46.314  36.709  52.877  0.00  0.00     0.142 A 
ATOM     14  O   UNL d   1      48.700  36.048  53.679  0.00  0.00    -0.266 OA
ENDBRANCH   6   7
ENDBRANCH   5   6
ENDBRANCH   4   5
ENDBRANCH   2   4
BRANCH   1  15
ATOM     15  C   UNL d   1      52.085  33.626  52.888  0.00  0.00     0.197 A 
ATOM     16  N   UNL d   1      52.679  33.947  53.363  0.00  0.00    -0.221 NA
ATOM     17  C   UNL d   1      53.123  33.322  53.668  0.00  0.00     0.090 A 
ATOM     18  C   UNL d   1      52.799  32.621  53.379  0.00  0.00     0.058 A 
ATOM     19  S   UNL d   1      52.166  32.809  52.903  0.00  0.00    -0.046 SA
BRANCH  17  20
ATOM     20  C   UNL d   1      53.765  33.391  54.165  0.00  0.00     0.018 A 
ATOM     21  C   UNL d   1      54.506  33.195  53.903  0.00  0.00     0.002 A 
ATOM     22  C   UNL d   1      55.155  33.265  54.406  0.00  0.00     0.000 A 
ATOM     23  C   UNL d   1      55.050  33.533  55.174  0.00  0.00     0.000 A 
ATOM     24  C   UNL d   1      54.297  33.733  55.444  0.00  0.00     0.000 A 
ATOM     25  C   UNL d   1      53.656  33.660  54.934  0.00  0.00     0.002 A 
ENDBRANCH  17  20
ENDBRANCH   1  15
TORSDOF 6
ENDMDL
MODEL 2
REMARK VINA RESULT:      -8.1      1.083      1.702
REMARK  6 active torsions:
REMARK  status: ('A' for Active; 'I' for Inactive)
REMARK    1  A    between atoms: N_4  and  C_1 
REMARK    2  A    between atoms: C_10  and  C_3 
REMARK       I    between atoms: C_9  and  N_4 
REMARK       I    between atoms: N_7  and  C_8 
REMARK    3  A    between atoms: C_8  and  C_15 
REMARK    4  A    between atoms: C_16  and  C_9 
REMARK    5  A    between atoms: S_14  and  C_16 
REMARK    6  A    between atoms: C_15  and  S_14 
ROOT
ATOM      1  N   UNL d   1      51.525  33.917  52.519  0.00  0.00    -0.182 NA
ATOM      2  C   UNL d   1      50.744  33.963  52.734  0.00  0.00     0.288 C 
ATOM      3  O   UNL d   1      50.456  33.512  53.361  0.00  0.00    -0.265 OA
ENDROOT
BRANCH   2   4
ATOM      4  C   UNL d   1      50.233  34.466  52.322  0.00  0.00     0.098 C 
BRANCH   4   5
ATOM      5  S   UNL d   1      49.615  34.823  52.816  0.00  0.00    -0.076 SA
BRANCH   5   6
ATOM      6  C   UNL d   1      48.933  35.211  52.445  0.00  0.00     0.097 C 
BRANCH   6   7
ATOM      7  C   UNL d   1      48.433  35.741  52.913  0.00  0.00     0.272 C 
ATOM      8  N   UNL d   1      47.642  35.961  52.632  0.00  0.00    -0.267 N 
ATOM      9  C   UNL d   1      47.352  35.648  51.876  0.00  0.00     0.110 A 
ATOM     10  C   UNL d   1      47.148  36.493  53.107  0.00  0.00     0.110 A 
ATOM     11  C   UNL d   1      46.565  35.865  51.592  0.00  0.00     0.142 A 
ATOM     12  O   UNL d   1      46.066  36.394  52.060  0.00  0.00    -0.300 OA
ATOM     13  C   UNL d   1      46.353  36.709  52.815  0.00  0.00     0.142 A 
ATOM     14  O   UNL d   1      48.723  36.054  53.668  0.00  0.00    -0.266 OA
ENDBRANCH   6   7
ENDBRANCH   5   6
ENDBRANCH   4   5
ENDBRANCH   2   4
BRANCH   1  15
ATOM     15  C   UNL d   1      52.038  33.416  52.929  0.00  0.00     0.197 A 
ATOM     16  N   UNL d   1      52.192  32.628  52.738  0.00  0.00    -0.221 NA
ATOM     17  C   UNL d   1      52.734  32.336  53.287  0.00  0.00     0.090 A 
ATOM     18  C   UNL d   1      52.910  32.946  53.812  0.00  0.00     0.058 A 
ATOM     19  S   UNL d   1      52.484  33.605  53.592  0.00  0.00    -0.046 SA
BRANCH  17  20
ATOM     20  C   UNL d   1      53.037  31.580  53.302  0.00  0.00     0.018 A 
ATOM     21  C   UNL d   1      53.743  31.432  53.670  0.00  0.00     0.002 A 
ATOM     22  C   UNL d   1      54.050  30.668  53.686  0.00  0.00     0.000 A 
ATOM     23  C   UNL d   1      53.639  30.055  53.328  0.00  0.00     0.000 A 
ATOM     24  C   UNL d   1      52.920  30.202  52.953  0.00  0.00     0.000 A 
ATOM     25  C   UNL d   1      52.622  30.969  52.943  0.00  0.00     0.002 A 
ENDBRANCH  17  20
ENDBRANCH   1  15
TORSDOF 6
ENDMDL
MODEL 3
REMARK VINA RESULT:      -6.5      1.403      6.811
REMARK  6 active torsions:
REMARK  status: ('A' for Active; 'I' for Inactive)
REMARK    1  A    between atoms: N_4  and  C_1 
REMARK    2  A    between atoms: C_10  and  C_3 
REMARK       I    between atoms: C_9  and  N_4 
REMARK       I    between atoms: N_7  and  C_8 
REMARK    3  A    between atoms: C_8  and  C_15 
REMARK    4  A    between atoms: C_16  and  C_9 
REMARK    5  A    between atoms: S_14  and  C_16 
REMARK    6  A    between atoms: C_15  and  S_14 
ROOT
ATOM      1  N   UNL d   1      48.772  35.032  51.560  0.00  0.00    -0.182 NA
ATOM      2  C   UNL d   1      49.263  34.818  52.170  0.00  0.00     0.288 C 
ATOM      3  O   UNL d   1      49.051  34.974  52.951  0.00  0.00    -0.265 OA
ENDROOT
BRANCH   2   4
ATOM      4  C   UNL d   1      49.980  34.439  52.007  0.00  0.00     0.098 C 
BRANCH   4   5
ATOM      5  S   UNL d   1      50.532  34.427  52.677  0.00  0.00    -0.076 SA
BRANCH   5   6
ATOM      6  C   UNL d   1      51.182  33.852  52.694  0.00  0.00     0.097 C 
BRANCH   6   7
ATOM      7  C   UNL d   1      51.883  34.008  53.176  0.00  0.00     0.272 C 
ATOM      8  N   UNL d   1      52.457  33.378  53.336  0.00  0.00    -0.267 N 
ATOM      9  C   UNL d   1      52.325  32.584  53.009  0.00  0.00     0.110 A 
ATOM     10  C   UNL d   1      53.157  33.544  53.821  0.00  0.00     0.110 A 
ATOM     11  C   UNL d   1      52.895  31.953  53.165  0.00  0.00     0.142 A 
ATOM     12  O   UNL d   1      53.595  32.110  53.647  0.00  0.00    -0.300 OA
ATOM     13  C   UNL d   1      53.729  32.902  53.976  0.00  0.00     0.142 A 
ATOM     14  O   UNL d   1      52.014  34.801  53.503  0.00  0.00    -0.266 OA
ENDBRANCH   6   7
ENDBRANCH   5   6
ENDBRANCH   4   5
ENDBRANCH   2   4
BRANCH   1  15
ATOM     15  C   UNL d   1      48.056  35.410  51.719  0.00  0.00     0.197 A 
ATOM     16  N   UNL d   1      47.307  35.121  51.524  0.00  0.00    -0.221 NA
ATOM     17  C   UNL d   1      46.748  35.669  51.782  0.00  0.00     0.090 A 
ATOM     18  C   UNL d   1      47.156  36.293  52.135  0.00  0.00     0.058 A 
ATOM     19  S   UNL d   1      47.953  36.133  52.096  0.00  0.00    -0.046 SA
BRANCH  17  20
ATOM     20  C   UNL d   1      45.941  35.602  51.701  0.00  0.00     0.018 A 
ATOM     21  C   UNL d   1      45.594  35.717  50.978  0.00  0.00     0.002 A 
ATOM     22  C   UNL d   1      44.777  35.649  50.895  0.00  0.00     0.000 A 
ATOM     23  C   UNL d   1      44.314  35.464  51.547  0.00  0.00     0.000 A 
ATOM     24  C   UNL d   1      44.665  35.347  52.284  0.00  0.00     0.000 A 
ATOM     25  C   UNL d   1      45.480  35.417  52.356  0.00  0.00     0.002 A 
ENDBRANCH  17  20
ENDBRANCH   1  15
TORSDOF 6
ENDMDL
