MODEL 1
REMARK VINA RESULT:       0.4      0.000      0.000
REMARK  8 active torsions:
REMARK  status: ('A' for Active; 'I' for Inactive)
REMARK    1  A    between atoms: N_10  and  C_4 
REMARK    2  A    between atoms: C_17  and  N_5 
REMARK    3  A    between atoms: C_16  and  N_10 
REMARK    4  A    between atoms: C_11  and  S_19 
REMARK    5  A    between atoms: C_20  and  C_16 
REMARK    6  A    between atoms: C_21  and  C_17 
REMARK    7  A    between atoms: S_19  and  C_26 
REMARK    8  A    between atoms: C_26  and  C_21 
ROOT
ATOM      1  C   UNL d   1      32.958  21.684 -23.118  0.00  0.00     0.191 A 
ATOM      2  C   UNL d   1      32.819  20.908 -23.359  0.00  0.00     0.174 A 
ATOM      3  N   UNL d   1      32.935  21.709 -22.289  0.00  0.00    -0.042 NA
ATOM      4  C   UNL d   1      32.780  20.928 -22.036  0.00  0.00     0.722 A 
ATOM      5  N   UNL d   1      32.695  20.373 -22.639  0.00  0.00    -0.132 N 
ATOM      6  N   UNL d   1      33.087  22.273 -23.678  0.00  0.00    -0.239 N 
ATOM      7  C   UNL d   1      33.080  22.095 -24.508  0.00  0.00     0.358 A 
ATOM      8  N   UNL d   1      32.942  21.318 -24.750  0.00  0.00    -0.152 NA
ATOM      9  C   UNL d   1      32.810  20.720 -24.162  0.00  0.00     0.303 A 
ATOM     10  O   UNL d   1      33.211  22.690 -25.088  0.00  0.00    -0.244 OA
ATOM     11  O   UNL d   1      32.672  19.944 -24.403  0.00  0.00    -0.263 OA
ATOM     12  C   UNL d   1      33.225  23.050 -23.437  0.00  0.00     0.105 C 
ENDROOT
BRANCH   5  13
ATOM     13  C   UNL d   1      32.559  19.608 -22.890  0.00  0.00     0.099 C 
BRANCH  13  14
ATOM     14  C   UNL d   1      33.155  19.049 -22.801  0.00  0.00     0.027 C 
BRANCH  14  15
ATOM     15  C   UNL d   1      33.082  18.318 -23.157  0.00  0.00     0.040 C 
BRANCH  15  16
ATOM     16  S   UNL d   1      33.156  17.632 -22.701  0.00  0.00    -0.048 SA
BRANCH  16  17
ATOM     17  C   UNL d   1      32.769  16.942 -22.935  0.00  0.00     0.194 A 
ATOM     18  N   UNL d   1      32.206  16.970 -23.536  0.00  0.00    -0.220 NA
ATOM     19  C   UNL d   1      31.829  16.286 -23.762  0.00  0.00     0.103 A 
ATOM     20  C   UNL d   1      32.006  15.568 -23.393  0.00  0.00     0.041 A 
ATOM     21  C   UNL d   1      32.572  15.536 -22.786  0.00  0.00     0.103 A 
ATOM     22  N   UNL d   1      32.953  16.232 -22.561  0.00  0.00    -0.220 NA
ENDBRANCH  16  17
ENDBRANCH  15  16
ENDBRANCH  14  15
ENDBRANCH  13  14
ENDBRANCH   5  13
BRANCH   4  23
ATOM     23  N   UNL d   1      32.710  20.695 -21.248  0.00  0.00    -0.137 N 
ATOM     24  C   UNL d   1      33.197  20.114 -20.944  0.00  0.00     0.118 C 
BRANCH  23  25
ATOM     25  C   UNL d   1      32.148  21.048 -20.761  0.00  0.00     0.098 C 
BRANCH  25  26
ATOM     26  C   UNL d   1      32.374  21.632 -20.224  0.00  0.00     0.018 A 
ATOM     27  C   UNL d   1      32.135  22.418 -20.346  0.00  0.00     0.002 A 
ATOM     28  C   UNL d   1      32.358  23.002 -19.814  0.00  0.00     0.000 A 
ATOM     29  C   UNL d   1      32.822  22.806 -19.154  0.00  0.00     0.000 A 
ATOM     30  C   UNL d   1      33.059  22.017 -19.036  0.00  0.00     0.000 A 
ATOM     31  C   UNL d   1      32.834  21.436 -19.571  0.00  0.00     0.002 A 
ENDBRANCH  25  26
ENDBRANCH  23  25
ENDBRANCH   4  23
TORSDOF 8
ENDMDL
MODEL 2
REMARK VINA RESULT:       3.4      2.446      5.855
REMARK  8 active torsions:
REMARK  status: ('A' for Active; 'I' for Inactive)
REMARK    1  A    between atoms: N_10  and  C_4 
REMARK    2  A    between atoms: C_17  and  N_5 
REMARK    3  A    between atoms: C_16  and  N_10 
REMARK    4  A    between atoms: C_11  and  S_19 
REMARK    5  A    between atoms: C_20  and  C_16 
REMARK    6  A    between atoms: C_21  and  C_17 
REMARK    7  A    between atoms: S_19  and  C_26 
REMARK    8  A    between atoms: C_26  and  C_21 
ROOT
ATOM      1  C   UNL d   1      31.556  16.835 -23.882  0.00  0.00     0.191 A 
ATOM      2  C   UNL d   1      31.988  17.421 -24.270  0.00  0.00     0.174 A 
ATOM      3  N   UNL d   1      30.753  17.041 -23.910  0.00  0.00    -0.042 NA
ATOM      4  C   UNL d   1      30.711  17.765 -24.325  0.00  0.00     0.722 A 
ATOM      5  N   UNL d   1      31.434  18.066 -24.581  0.00  0.00    -0.132 N 
ATOM      6  N   UNL d   1      31.943  16.188 -23.550  0.00  0.00    -0.239 N 
ATOM      7  C   UNL d   1      32.787  16.112 -23.601  0.00  0.00     0.358 A 
ATOM      8  N   UNL d   1      33.219  16.697 -23.989  0.00  0.00    -0.152 NA
ATOM      9  C   UNL d   1      32.808  17.359 -24.327  0.00  0.00     0.303 A 
ATOM     10  O   UNL d   1      33.191  15.455 -23.266  0.00  0.00    -0.244 OA
ATOM     11  O   UNL d   1      33.241  17.945 -24.715  0.00  0.00    -0.263 OA
ATOM     12  C   UNL d   1      31.510  15.603 -23.162  0.00  0.00     0.105 C 
ENDROOT
BRANCH   5  13
ATOM     13  C   UNL d   1      31.873  18.639 -24.963  0.00  0.00     0.099 C 
BRANCH  13  14
ATOM     14  C   UNL d   1      32.233  19.227 -24.515  0.00  0.00     0.027 C 
BRANCH  14  15
ATOM     15  C   UNL d   1      32.399  19.950 -24.855  0.00  0.00     0.040 C 
BRANCH  15  16
ATOM     16  S   UNL d   1      33.110  20.333 -24.672  0.00  0.00    -0.048 SA
BRANCH  16  17
ATOM     17  C   UNL d   1      33.104  21.138 -24.491  0.00  0.00     0.194 A 
ATOM     18  N   UNL d   1      33.089  21.696 -25.096  0.00  0.00    -0.220 NA
ATOM     19  C   UNL d   1      33.083  22.488 -24.909  0.00  0.00     0.103 A 
ATOM     20  C   UNL d   1      33.093  22.732 -24.119  0.00  0.00     0.041 A 
ATOM     21  C   UNL d   1      33.108  22.172 -23.506  0.00  0.00     0.103 A 
ATOM     22  N   UNL d   1      33.114  21.370 -23.700  0.00  0.00    -0.220 NA
ENDBRANCH  16  17
ENDBRANCH  15  16
ENDBRANCH  14  15
ENDBRANCH  13  14
ENDBRANCH   5  13
BRANCH   4  23
ATOM     23  N   UNL d   1      30.013  18.175 -24.484  0.00  0.00    -0.137 N 
ATOM     24  C   UNL d   1      29.889  18.916 -24.166  0.00  0.00     0.118 C 
BRANCH  23  25
ATOM     25  C   UNL d   1      29.437  17.838 -24.965  0.00  0.00     0.098 C 
BRANCH  25  26
ATOM     26  C   UNL d   1      28.809  17.422 -24.629  0.00  0.00     0.018 A 
ATOM     27  C   UNL d   1      28.379  17.758 -24.003  0.00  0.00     0.002 A 
ATOM     28  C   UNL d   1      27.753  17.346 -23.667  0.00  0.00     0.000 A 
ATOM     29  C   UNL d   1      27.551  16.594 -23.953  0.00  0.00     0.000 A 
ATOM     30  C   UNL d   1      27.985  16.261 -24.580  0.00  0.00     0.000 A 
ATOM     31  C   UNL d   1      28.610  16.676 -24.914  0.00  0.00     0.002 A 
ENDBRANCH  25  26
ENDBRANCH  23  25
ENDBRANCH   4  23
TORSDOF 8
ENDMDL
