MODEL 1
REMARK VINA RESULT:      -6.2      0.000      0.000
REMARK  8 active torsions:
REMARK  status: ('A' for Active; 'I' for Inactive)
REMARK    1  A    between atoms: C_2  and  S_1 
REMARK    2  A    between atoms: N_11  and  S_1 
REMARK    3  A    between atoms: N_6  and  C_17 
REMARK    4  A    between atoms: C_21  and  N_11 
REMARK    5  A    between atoms: O_16  and  C_12 
REMARK    6  A    between atoms: C_22  and  O_16 
REMARK    7  A    between atoms: C_17  and  C_18 
REMARK    8  A    between atoms: C_18  and  C_21 
ROOT
ATOM      1  C   UNL d   1     -48.099  13.534  22.969  0.00  0.00     0.105 A 
ATOM      2  C   UNL d   1     -48.762  13.077  23.159  0.00  0.00     0.014 A 
ATOM      3  C   UNL d   1     -49.480  13.447  23.323  0.00  0.00     0.024 A 
ATOM      4  C   UNL d   1     -48.156  14.362  22.944  0.00  0.00     0.015 A 
ATOM      5  C   UNL d   1     -49.548  14.271  23.301  0.00  0.00     0.100 A 
ATOM      6  C   UNL d   1     -48.877  14.729  23.109  0.00  0.00     0.025 A 
ATOM      7  C   UNL d   1     -48.701  12.255  23.182  0.00  0.00     0.001 A 
ATOM      8  C   UNL d   1     -50.136  13.000  23.511  0.00  0.00     0.002 A 
ATOM      9  C   UNL d   1     -49.369  11.806  23.373  0.00  0.00     0.000 A 
ATOM     10  C   UNL d   1     -50.087  12.176  23.538  0.00  0.00     0.000 A 
ENDROOT
BRANCH   1  11
ATOM     11  S   UNL d   1     -47.379  13.167  22.804  0.00  0.00     0.285 S 
ATOM     12  O   UNL d   1     -47.587  13.117  22.008  0.00  0.00    -0.198 OA
ATOM     13  O   UNL d   1     -47.171  13.217  23.601  0.00  0.00    -0.198 OA
BRANCH  11  14
ATOM     14  N   UNL d   1     -46.659  12.800  22.639  0.00  0.00    -0.157 NA
BRANCH  14  15
ATOM     15  C   UNL d   1     -46.023  13.251  22.353  0.00  0.00     0.114 C 
BRANCH  15  16
ATOM     16  C   UNL d   1     -45.278  12.905  22.273  0.00  0.00     0.041 C 
BRANCH  16  17
ATOM     17  C   UNL d   1     -44.784  13.117  21.646  0.00  0.00     0.083 C 
BRANCH  17  18
ATOM     18  N   UNL d   1     -43.994  12.883  21.641  0.00  0.00    -0.285 N 
ATOM     19  C   UNL d   1     -43.698  12.173  21.946  0.00  0.00     0.183 A 
ATOM     20  N   UNL d   1     -42.878  12.169  21.822  0.00  0.00    -0.222 NA
ATOM     21  C   UNL d   1     -42.672  12.872  21.443  0.00  0.00     0.120 A 
ATOM     22  C   UNL d   1     -43.364  13.313  21.331  0.00  0.00     0.102 A 
ENDBRANCH  17  18
ENDBRANCH  16  17
ENDBRANCH  15  16
ENDBRANCH  14  15
ENDBRANCH  11  14
ENDBRANCH   1  11
BRANCH   5  23
ATOM     23  O   UNL d   1     -50.268  14.638  23.467  0.00  0.00    -0.305 OA
BRANCH  23  24
ATOM     24  C   UNL d   1     -50.294  15.449  23.572  0.00  0.00     0.123 C 
ATOM     25  C   UNL d   1     -51.021  15.823  23.680  0.00  0.00     0.029 C 
ENDBRANCH  23  24
ENDBRANCH   5  23
TORSDOF 8
ENDMDL
MODEL 2
REMARK VINA RESULT:      -5.9      1.895      5.391
REMARK  8 active torsions:
REMARK  status: ('A' for Active; 'I' for Inactive)
REMARK    1  A    between atoms: C_2  and  S_1 
REMARK    2  A    between atoms: N_11  and  S_1 
REMARK    3  A    between atoms: N_6  and  C_17 
REMARK    4  A    between atoms: C_21  and  N_11 
REMARK    5  A    between atoms: O_16  and  C_12 
REMARK    6  A    between atoms: C_22  and  O_16 
REMARK    7  A    between atoms: C_17  and  C_18 
REMARK    8  A    between atoms: C_18  and  C_21 
ROOT
ATOM      1  C   UNL d   1     -46.069  13.025  22.688  0.00  0.00     0.105 A 
ATOM      2  C   UNL d   1     -45.765  12.301  22.946  0.00  0.00     0.014 A 
ATOM      3  C   UNL d   1     -45.014  12.063  22.704  0.00  0.00     0.024 A 
ATOM      4  C   UNL d   1     -45.620  13.511  22.186  0.00  0.00     0.015 A 
ATOM      5  C   UNL d   1     -44.558  12.539  22.205  0.00  0.00     0.100 A 
ATOM      6  C   UNL d   1     -44.868  13.270  21.946  0.00  0.00     0.025 A 
ATOM      7  C   UNL d   1     -46.214  11.821  23.444  0.00  0.00     0.001 A 
ATOM      8  C   UNL d   1     -44.710  11.349  22.956  0.00  0.00     0.002 A 
ATOM      9  C   UNL d   1     -45.903  11.098  23.698  0.00  0.00     0.000 A 
ATOM     10  C   UNL d   1     -45.151  10.860  23.455  0.00  0.00     0.000 A 
ENDROOT
BRANCH   1  11
ATOM     11  S   UNL d   1     -46.820  13.266  22.929  0.00  0.00     0.285 S 
ATOM     12  O   UNL d   1     -46.492  13.630  23.591  0.00  0.00    -0.198 OA
ATOM     13  O   UNL d   1     -47.150  12.902  22.265  0.00  0.00    -0.198 OA
BRANCH  11  14
ATOM     14  N   UNL d   1     -47.572  13.508  23.169  0.00  0.00    -0.157 NA
BRANCH  14  15
ATOM     15  C   UNL d   1     -47.845  14.265  22.968  0.00  0.00     0.114 C 
BRANCH  15  16
ATOM     16  C   UNL d   1     -48.656  14.407  22.912  0.00  0.00     0.041 C 
BRANCH  16  17
ATOM     17  C   UNL d   1     -48.958  15.163  23.049  0.00  0.00     0.083 C 
BRANCH  17  18
ATOM     18  N   UNL d   1     -49.773  15.292  23.056  0.00  0.00    -0.285 N 
ATOM     19  C   UNL d   1     -50.307  15.038  22.479  0.00  0.00     0.183 A 
ATOM     20  N   UNL d   1     -51.063  15.287  22.710  0.00  0.00    -0.222 NA
ATOM     21  C   UNL d   1     -50.993  15.691  23.426  0.00  0.00     0.120 A 
ATOM     22  C   UNL d   1     -50.193  15.693  23.639  0.00  0.00     0.102 A 
ENDBRANCH  17  18
ENDBRANCH  16  17
ENDBRANCH  15  16
ENDBRANCH  14  15
ENDBRANCH  11  14
ENDBRANCH   1  11
BRANCH   5  23
ATOM     23  O   UNL d   1     -43.807  12.298  21.964  0.00  0.00    -0.305 OA
BRANCH  23  24
ATOM     24  C   UNL d   1     -43.311  12.832  21.592  0.00  0.00     0.123 C 
ATOM     25  C   UNL d   1     -42.575  12.581  21.315  0.00  0.00     0.029 C 
ENDBRANCH  23  24
ENDBRANCH   5  23
TORSDOF 8
ENDMDL
MODEL 3
REMARK VINA RESULT:      -5.6      1.261      1.583
REMARK  8 active torsions:
REMARK  status: ('A' for Active; 'I' for Inactive)
REMARK    1  A    between atoms: C_2  and  S_1 
REMARK    2  A    between atoms: N_11  and  S_1 
REMARK    3  A    between atoms: N_6  and  C_17 
REMARK    4  A    between atoms: C_21  and  N_11 
REMARK    5  A    between atoms: O_16  and  C_12 
REMARK    6  A    between atoms: C_22  and  O_16 
REMARK    7  A    between atoms: C_17  and  C_18 
REMARK    8  A    between atoms: C_18  and  C_21 
ROOT
ATOM      1  C   UNL d   1     -48.471  13.099  22.966  0.00  0.00     0.105 A 
ATOM      2  C   UNL d   1     -49.208  12.769  23.141  0.00  0.00     0.014 A 
ATOM      3  C   UNL d   1     -49.851  13.263  23.296  0.00  0.00     0.024 A 
ATOM      4  C   UNL d   1     -48.376  13.925  22.947  0.00  0.00     0.015 A 
ATOM      5  C   UNL d   1     -49.768  14.085  23.279  0.00  0.00     0.100 A 
ATOM      6  C   UNL d   1     -49.021  14.415  23.103  0.00  0.00     0.025 A 
ATOM      7  C   UNL d   1     -49.299  11.950  23.158  0.00  0.00     0.001 A 
ATOM      8  C   UNL d   1     -50.581  12.941  23.468  0.00  0.00     0.002 A 
ATOM      9  C   UNL d   1     -50.040  11.628  23.334  0.00  0.00     0.000 A 
ATOM     10  C   UNL d   1     -50.682  12.122  23.489  0.00  0.00     0.000 A 
ENDROOT
BRANCH   1  11
ATOM     11  S   UNL d   1     -47.826  12.609  22.810  0.00  0.00     0.285 S 
ATOM     12  O   UNL d   1     -47.608  12.643  23.604  0.00  0.00    -0.198 OA
ATOM     13  O   UNL d   1     -48.044  12.575  22.015  0.00  0.00    -0.198 OA
BRANCH  11  14
ATOM     14  N   UNL d   1     -47.181  12.118  22.655  0.00  0.00    -0.157 NA
BRANCH  14  15
ATOM     15  C   UNL d   1     -46.449  12.273  23.015  0.00  0.00     0.114 C 
BRANCH  15  16
ATOM     16  C   UNL d   1     -45.931  11.651  23.172  0.00  0.00     0.041 C 
BRANCH  16  17
ATOM     17  C   UNL d   1     -45.153  11.677  22.896  0.00  0.00     0.083 C 
BRANCH  17  18
ATOM     18  N   UNL d   1     -44.602  11.117  23.149  0.00  0.00    -0.285 N 
ATOM     19  C   UNL d   1     -43.781  11.176  23.069  0.00  0.00     0.183 A 
ATOM     20  N   UNL d   1     -43.447  10.492  23.397  0.00  0.00    -0.222 NA
ATOM     21  C   UNL d   1     -44.060  10.016  23.677  0.00  0.00     0.120 A 
ATOM     22  C   UNL d   1     -44.775  10.404  23.522  0.00  0.00     0.102 A 
ENDBRANCH  17  18
ENDBRANCH  16  17
ENDBRANCH  15  16
ENDBRANCH  14  15
ENDBRANCH  11  14
ENDBRANCH   1  11
BRANCH   5  23
ATOM     23  O   UNL d   1     -50.413  14.576  23.435  0.00  0.00    -0.305 OA
BRANCH  23  24
ATOM     24  C   UNL d   1     -50.289  15.372  23.579  0.00  0.00     0.123 C 
ATOM     25  C   UNL d   1     -50.932  15.889  23.589  0.00  0.00     0.029 C 
ENDBRANCH  23  24
ENDBRANCH   5  23
TORSDOF 8
ENDMDL
MODEL 4
REMARK VINA RESULT:      -5.5      0.882      1.830
REMARK  8 active torsions:
REMARK  status: ('A' for Active; 'I' for Inactive)
REMARK    1  A    between atoms: C_2  and  S_1 
REMARK    2  A    between atoms: N_11  and  S_1 
REMARK    3  A    between atoms: N_6  and  C_17 
REMARK    4  A    between atoms: C_21  and  N_11 
REMARK    5  A    between atoms: O_16  and  C_12 
REMARK    6  A    between atoms: C_22  and  O_16 
REMARK    7  A    between atoms: C_17  and  C_18 
REMARK    8  A    between atoms: C_18  and  C_21 
ROOT
ATOM      1  C   UNL d   1     -47.530  13.301  22.838  0.00  0.00     0.105 A 
ATOM      2  C   UNL d   1     -48.098  13.900  22.791  0.00  0.00     0.014 A 
ATOM      3  C   UNL d   1     -48.888  13.729  22.957  0.00  0.00     0.024 A 
ATOM      4  C   UNL d   1     -47.753  12.530  23.051  0.00  0.00     0.015 A 
ATOM      5  C   UNL d   1     -49.120  12.964  23.171  0.00  0.00     0.100 A 
ATOM      6  C   UNL d   1     -48.544  12.362  23.217  0.00  0.00     0.025 A 
ATOM      7  C   UNL d   1     -47.873  14.664  22.578  0.00  0.00     0.001 A 
ATOM      8  C   UNL d   1     -49.451  14.317  22.912  0.00  0.00     0.002 A 
ATOM      9  C   UNL d   1     -48.448  15.257  22.534  0.00  0.00     0.000 A 
ATOM     10  C   UNL d   1     -49.237  15.086  22.700  0.00  0.00     0.000 A 
ENDROOT
BRANCH   1  11
ATOM     11  S   UNL d   1     -46.740  13.468  22.672  0.00  0.00     0.285 S 
ATOM     12  O   UNL d   1     -46.904  13.445  21.865  0.00  0.00    -0.198 OA
ATOM     13  O   UNL d   1     -46.575  13.492  23.481  0.00  0.00    -0.198 OA
BRANCH  11  14
ATOM     14  N   UNL d   1     -45.949  13.636  22.507  0.00  0.00    -0.157 NA
BRANCH  14  15
ATOM     15  C   UNL d   1     -45.505  13.110  22.043  0.00  0.00     0.114 C 
BRANCH  15  16
ATOM     16  C   UNL d   1     -44.683  13.177  22.021  0.00  0.00     0.041 C 
BRANCH  16  17
ATOM     17  C   UNL d   1     -44.244  12.744  21.471  0.00  0.00     0.083 C 
BRANCH  17  18
ATOM     18  N   UNL d   1     -43.421  12.809  21.451  0.00  0.00    -0.285 N 
ATOM     19  C   UNL d   1     -42.891  12.380  21.918  0.00  0.00     0.183 A 
ATOM     20  N   UNL d   1     -42.125  12.622  21.715  0.00  0.00    -0.222 NA
ATOM     21  C   UNL d   1     -42.185  13.197  21.126  0.00  0.00     0.120 A 
ATOM     22  C   UNL d   1     -42.989  13.311  20.964  0.00  0.00     0.102 A 
ENDBRANCH  17  18
ENDBRANCH  16  17
ENDBRANCH  15  16
ENDBRANCH  14  15
ENDBRANCH  11  14
ENDBRANCH   1  11
BRANCH   5  23
ATOM     23  O   UNL d   1     -49.911  12.797  23.336  0.00  0.00    -0.305 OA
BRANCH  23  24
ATOM     24  C   UNL d   1     -50.127  12.036  23.547  0.00  0.00     0.123 C 
ATOM     25  C   UNL d   1     -50.920  11.865  23.698  0.00  0.00     0.029 C 
ENDBRANCH  23  24
ENDBRANCH   5  23
TORSDOF 8
ENDMDL
MODEL 5
REMARK VINA RESULT:      -5.5      0.981      1.367
REMARK  8 active torsions:
REMARK  status: ('A' for Active; 'I' for Inactive)
REMARK    1  A    between atoms: C_2  and  S_1 
REMARK    2  A    between atoms: N_11  and  S_1 
REMARK    3  A    between atoms: N_6  and  C_17 
REMARK    4  A    between atoms: C_21  and  N_11 
REMARK    5  A    between atoms: O_16  and  C_12 
REMARK    6  A    between atoms: C_22  and  O_16 
REMARK    7  A    between atoms: C_17  and  C_18 
REMARK    8  A    between atoms: C_18  and  C_21 
ROOT
ATOM      1  C   UNL d   1     -46.883  13.486  22.832  0.00  0.00     0.105 A 
ATOM      2  C   UNL d   1     -47.488  12.978  23.075  0.00  0.00     0.014 A 
ATOM      3  C   UNL d   1     -48.252  13.272  23.177  0.00  0.00     0.024 A 
ATOM      4  C   UNL d   1     -47.043  14.289  22.691  0.00  0.00     0.015 A 
ATOM      5  C   UNL d   1     -48.422  14.069  23.040  0.00  0.00     0.100 A 
ATOM      6  C   UNL d   1     -47.808  14.579  22.795  0.00  0.00     0.025 A 
ATOM      7  C   UNL d   1     -47.325  12.182  23.213  0.00  0.00     0.001 A 
ATOM      8  C   UNL d   1     -48.852  12.774  23.417  0.00  0.00     0.002 A 
ATOM      9  C   UNL d   1     -47.936  11.680  23.456  0.00  0.00     0.000 A 
ATOM     10  C   UNL d   1     -48.700  11.974  23.559  0.00  0.00     0.000 A 
ENDROOT
BRANCH   1  11
ATOM     11  S   UNL d   1     -46.117  13.196  22.728  0.00  0.00     0.285 S 
ATOM     12  O   UNL d   1     -45.934  13.402  23.504  0.00  0.00    -0.198 OA
ATOM     13  O   UNL d   1     -46.301  12.990  21.949  0.00  0.00    -0.198 OA
BRANCH  11  14
ATOM     14  N   UNL d   1     -45.352  12.906  22.624  0.00  0.00    -0.157 NA
BRANCH  14  15
ATOM     15  C   UNL d   1     -44.919  13.119  21.949  0.00  0.00     0.114 C 
BRANCH  15  16
ATOM     16  C   UNL d   1     -44.105  12.984  21.925  0.00  0.00     0.041 C 
BRANCH  16  17
ATOM     17  C   UNL d   1     -43.696  13.025  21.208  0.00  0.00     0.083 C 
BRANCH  17  18
ATOM     18  N   UNL d   1     -42.896  13.223  21.196  0.00  0.00    -0.285 N 
ATOM     19  C   UNL d   1     -42.276  12.746  21.464  0.00  0.00     0.183 A 
ATOM     20  N   UNL d   1     -41.569  13.163  21.346  0.00  0.00    -0.222 NA
ATOM     21  C   UNL d   1     -41.754  13.892  21.008  0.00  0.00     0.120 A 
ATOM     22  C   UNL d   1     -42.576  13.928  20.916  0.00  0.00     0.102 A 
ENDBRANCH  17  18
ENDBRANCH  16  17
ENDBRANCH  15  16
ENDBRANCH  14  15
ENDBRANCH  11  14
ENDBRANCH   1  11
BRANCH   5  23
ATOM     23  O   UNL d   1     -49.187  14.359  23.144  0.00  0.00    -0.305 OA
BRANCH  23  24
ATOM     24  C   UNL d   1     -49.334  15.158  23.038  0.00  0.00     0.123 C 
ATOM     25  C   UNL d   1     -50.101  15.446  23.133  0.00  0.00     0.029 C 
ENDBRANCH  23  24
ENDBRANCH   5  23
TORSDOF 8
ENDMDL
MODEL 6
REMARK VINA RESULT:      -4.6      9.030     10.224
REMARK  8 active torsions:
REMARK  status: ('A' for Active; 'I' for Inactive)
REMARK    1  A    between atoms: C_2  and  S_1 
REMARK    2  A    between atoms: N_11  and  S_1 
REMARK    3  A    between atoms: N_6  and  C_17 
REMARK    4  A    between atoms: C_21  and  N_11 
REMARK    5  A    between atoms: O_16  and  C_12 
REMARK    6  A    between atoms: C_22  and  O_16 
REMARK    7  A    between atoms: C_17  and  C_18 
REMARK    8  A    between atoms: C_18  and  C_21 
ROOT
ATOM      1  C   UNL d   1     -39.043  14.348  18.100  0.00  0.00     0.105 A 
ATOM      2  C   UNL d   1     -39.604  14.688  17.597  0.00  0.00     0.014 A 
ATOM      3  C   UNL d   1     -39.489  14.665  16.781  0.00  0.00     0.024 A 
ATOM      4  C   UNL d   1     -38.365  13.985  17.784  0.00  0.00     0.015 A 
ATOM      5  C   UNL d   1     -38.819  14.306  16.456  0.00  0.00     0.100 A 
ATOM      6  C   UNL d   1     -38.254  13.964  16.967  0.00  0.00     0.025 A 
ATOM      7  C   UNL d   1     -40.275  15.048  17.914  0.00  0.00     0.001 A 
ATOM      8  C   UNL d   1     -40.041  14.999  16.281  0.00  0.00     0.002 A 
ATOM      9  C   UNL d   1     -40.832  15.386  17.404  0.00  0.00     0.000 A 
ATOM     10  C   UNL d   1     -40.717  15.363  16.587  0.00  0.00     0.000 A 
ENDROOT
BRANCH   1  11
ATOM     11  S   UNL d   1     -39.154  14.370  18.917  0.00  0.00     0.285 S 
ATOM     12  O   UNL d   1     -38.748  15.086  18.953  0.00  0.00    -0.198 OA
ATOM     13  O   UNL d   1     -39.560  13.651  18.880  0.00  0.00    -0.198 OA
BRANCH  11  14
ATOM     14  N   UNL d   1     -39.265  14.391  19.734  0.00  0.00    -0.157 NA
BRANCH  14  15
ATOM     15  C   UNL d   1     -38.755  13.963  20.230  0.00  0.00     0.114 C 
BRANCH  15  16
ATOM     16  C   UNL d   1     -38.881  13.965  21.046  0.00  0.00     0.041 C 
BRANCH  16  17
ATOM     17  C   UNL d   1     -38.240  13.996  21.566  0.00  0.00     0.083 C 
BRANCH  17  18
ATOM     18  N   UNL d   1     -38.347  13.836  22.368  0.00  0.00    -0.285 N 
ATOM     19  C   UNL d   1     -38.623  13.124  22.686  0.00  0.00     0.183 A 
ATOM     20  N   UNL d   1     -38.643  13.209  23.511  0.00  0.00    -0.222 NA
ATOM     21  C   UNL d   1     -38.381  13.968  23.698  0.00  0.00     0.120 A 
ATOM     22  C   UNL d   1     -38.198  14.355  22.989  0.00  0.00     0.102 A 
ENDBRANCH  17  18
ENDBRANCH  16  17
ENDBRANCH  15  16
ENDBRANCH  14  15
ENDBRANCH  11  14
ENDBRANCH   1  11
BRANCH   5  23
ATOM     23  O   UNL d   1     -38.707  14.285  15.639  0.00  0.00    -0.305 OA
BRANCH  23  24
ATOM     24  C   UNL d   1     -38.010  13.983  15.334  0.00  0.00     0.123 C 
ATOM     25  C   UNL d   1     -37.994  13.699  14.560  0.00  0.00     0.029 C 
ENDBRANCH  23  24
ENDBRANCH   5  23
TORSDOF 8
ENDMDL
MODEL 7
REMARK VINA RESULT:      -4.0      7.721      9.580
REMARK  8 active torsions:
REMARK  status: ('A' for Active; 'I' for Inactive)
REMARK    1  A    between atoms: C_2  and  S_1 
REMARK    2  A    between atoms: N_11  and  S_1 
REMARK    3  A    between atoms: N_6  and  C_17 
REMARK    4  A    between atoms: C_21  and  N_11 
REMARK    5  A    between atoms: O_16  and  C_12 
REMARK    6  A    between atoms: C_22  and  O_16 
REMARK    7  A    between atoms: C_17  and  C_18 
REMARK    8  A    between atoms: C_18  and  C_21 
ROOT
ATOM      1  C   UNL d   1     -39.171  14.476  19.981  0.00  0.00     0.105 A 
ATOM      2  C   UNL d   1     -39.859  14.700  20.381  0.00  0.00     0.014 A 
ATOM      3  C   UNL d   1     -39.944  14.518  21.181  0.00  0.00     0.024 A 
ATOM      4  C   UNL d   1     -38.568  14.069  20.383  0.00  0.00     0.015 A 
ATOM      5  C   UNL d   1     -39.351  14.113  21.590  0.00  0.00     0.100 A 
ATOM      6  C   UNL d   1     -38.657  13.888  21.183  0.00  0.00     0.025 A 
ATOM      7  C   UNL d   1     -40.454  15.104  19.980  0.00  0.00     0.001 A 
ATOM      8  C   UNL d   1     -40.622  14.737  21.580  0.00  0.00     0.002 A 
ATOM      9  C   UNL d   1     -41.140  15.325  20.387  0.00  0.00     0.000 A 
ATOM     10  C   UNL d   1     -41.225  15.142  21.187  0.00  0.00     0.000 A 
ENDROOT
BRANCH   1  11
ATOM     11  S   UNL d   1     -39.081  14.656  19.181  0.00  0.00     0.285 S 
ATOM     12  O   UNL d   1     -39.555  14.012  18.983  0.00  0.00    -0.198 OA
ATOM     13  O   UNL d   1     -38.606  15.302  19.380  0.00  0.00    -0.198 OA
BRANCH  11  14
ATOM     14  N   UNL d   1     -38.992  14.837  18.381  0.00  0.00    -0.157 NA
BRANCH  14  15
ATOM     15  C   UNL d   1     -38.447  14.412  17.922  0.00  0.00     0.114 C 
BRANCH  15  16
ATOM     16  C   UNL d   1     -38.500  14.434  17.099  0.00  0.00     0.041 C 
BRANCH  16  17
ATOM     17  C   UNL d   1     -38.043  13.924  16.637  0.00  0.00     0.083 C 
BRANCH  17  18
ATOM     18  N   UNL d   1     -38.019  14.012  15.817  0.00  0.00    -0.285 N 
ATOM     19  C   UNL d   1     -38.071  14.728  15.407  0.00  0.00     0.183 A 
ATOM     20  N   UNL d   1     -38.024  14.557  14.597  0.00  0.00    -0.222 NA
ATOM     21  C   UNL d   1     -37.943  13.740  14.511  0.00  0.00     0.120 A 
ATOM     22  C   UNL d   1     -37.941  13.405  15.268  0.00  0.00     0.102 A 
ENDBRANCH  17  18
ENDBRANCH  16  17
ENDBRANCH  15  16
ENDBRANCH  14  15
ENDBRANCH  11  14
ENDBRANCH   1  11
BRANCH   5  23
ATOM     23  O   UNL d   1     -39.440  13.932  22.390  0.00  0.00    -0.305 OA
BRANCH  23  24
ATOM     24  C   UNL d   1     -38.778  13.772  22.845  0.00  0.00     0.123 C 
ATOM     25  C   UNL d   1     -38.869  13.424  23.587  0.00  0.00     0.029 C 
ENDBRANCH  23  24
ENDBRANCH   5  23
TORSDOF 8
ENDMDL
