MODEL 1
REMARK VINA RESULT:      -8.0      0.000      0.000
REMARK  3 active torsions:
REMARK  status: ('A' for Active; 'I' for Inactive)
REMARK    1  A    between atoms: C_5  and  C_1 
REMARK    2  A    between atoms: C_4  and  C_2 
REMARK       I    between atoms: N_8  and  C_4 
REMARK    3  A    between atoms: C_10  and  N_8 
ROOT
ATOM      1  C   UNL d   1     -48.305  12.117  22.720  0.00  0.00     0.118 A 
ATOM      2  C   UNL d   1     -49.000  12.387  23.078  0.00  0.00     0.103 A 
ATOM      3  N   UNL d   1     -48.348  11.296  22.705  0.00  0.00    -0.126 NA
ATOM      4  O   UNL d   1     -49.052  11.055  23.046  0.00  0.00    -0.211 OA
ATOM      5  C   UNL d   1     -49.456  11.736  23.277  0.00  0.00     0.131 A 
ATOM      6  C   UNL d   1     -50.197  11.766  23.648  0.00  0.00     0.029 C 
ENDROOT
BRANCH   2   7
ATOM      7  C   UNL d   1     -49.193  13.183  23.209  0.00  0.00     0.283 C 
ATOM      8  N   UNL d   1     -49.860  13.504  22.847  0.00  0.00    -0.204 NA
ATOM      9  O   UNL d   1     -48.714  13.634  23.698  0.00  0.00    -0.265 OA
BRANCH   8  10
ATOM     10  C   UNL d   1     -50.052  14.293  22.977  0.00  0.00     0.130 A 
ATOM     11  C   UNL d   1     -50.465  14.776  22.459  0.00  0.00     0.243 A 
ATOM     12  S   UNL d   1     -50.537  15.527  22.805  0.00  0.00    -0.044 SA
ATOM     13  O   UNL d   1     -50.758  14.563  21.725  0.00  0.00    -0.278 OA
ATOM     14  C   UNL d   1     -50.168  15.504  23.538  0.00  0.00     0.040 A 
ATOM     15  C   UNL d   1     -49.864  14.735  23.648  0.00  0.00     0.030 A 
ENDBRANCH   8  10
ENDBRANCH   2   7
BRANCH   1  16
ATOM     16  C   UNL d   1     -47.690  12.575  22.433  0.00  0.00     0.058 A 
ATOM     17  C   UNL d   1     -47.712  12.871  21.657  0.00  0.00     0.142 A 
ATOM     18  F   UNL d   1     -48.362  12.697  21.180  0.00  0.00    -0.204 F 
ATOM     19  C   UNL d   1     -47.091  13.328  21.382  0.00  0.00     0.030 A 
ATOM     20  C   UNL d   1     -46.443  13.500  21.862  0.00  0.00     0.003 A 
ATOM     21  C   UNL d   1     -46.423  13.202  22.640  0.00  0.00     0.012 A 
ATOM     22  C   UNL d   1     -47.045  12.742  22.921  0.00  0.00     0.061 A 
ATOM     23 CL   UNL d   1     -46.776  12.584  23.698  0.00  0.00    -0.082 Cl
ENDBRANCH   1  16
TORSDOF 3
ENDMDL
MODEL 2
REMARK VINA RESULT:      -7.9      1.769      3.080
REMARK  3 active torsions:
REMARK  status: ('A' for Active; 'I' for Inactive)
REMARK    1  A    between atoms: C_5  and  C_1 
REMARK    2  A    between atoms: C_4  and  C_2 
REMARK       I    between atoms: N_8  and  C_4 
REMARK    3  A    between atoms: C_10  and  N_8 
ROOT
ATOM      1  C   UNL d   1     -49.724  12.433  22.893  0.00  0.00     0.118 A 
ATOM      2  C   UNL d   1     -48.960  12.129  22.976  0.00  0.00     0.103 A 
ATOM      3  N   UNL d   1     -50.222  11.956  23.341  0.00  0.00    -0.126 NA
ATOM      4  O   UNL d   1     -49.782  11.366  23.698  0.00  0.00    -0.211 OA
ATOM      5  C   UNL d   1     -48.997  11.475  23.469  0.00  0.00     0.131 A 
ATOM      6  C   UNL d   1     -48.350  11.009  23.695  0.00  0.00     0.029 C 
ENDROOT
BRANCH   2   7
ATOM      7  C   UNL d   1     -48.279  12.438  22.618  0.00  0.00     0.283 C 
ATOM      8  N   UNL d   1     -47.688  12.769  23.087  0.00  0.00    -0.204 NA
ATOM      9  O   UNL d   1     -48.209  12.407  21.802  0.00  0.00    -0.265 OA
BRANCH   8  10
ATOM     10  C   UNL d   1     -47.013  13.076  22.732  0.00  0.00     0.130 A 
ATOM     11  C   UNL d   1     -46.566  13.702  23.016  0.00  0.00     0.243 A 
ATOM     12  S   UNL d   1     -45.935  13.831  22.491  0.00  0.00    -0.044 SA
ATOM     13  O   UNL d   1     -46.709  14.132  23.698  0.00  0.00    -0.278 OA
ATOM     14  C   UNL d   1     -45.996  13.282  21.884  0.00  0.00     0.040 A 
ATOM     15  C   UNL d   1     -46.668  12.809  22.032  0.00  0.00     0.030 A 
ENDBRANCH   8  10
ENDBRANCH   2   7
BRANCH   1  16
ATOM     16  C   UNL d   1     -49.947  13.085  22.450  0.00  0.00     0.058 A 
ATOM     17  C   UNL d   1     -50.086  13.011  21.633  0.00  0.00     0.142 A 
ATOM     18  F   UNL d   1     -49.995  12.273  21.276  0.00  0.00    -0.204 F 
ATOM     19  C   UNL d   1     -50.308  13.670  21.201  0.00  0.00     0.030 A 
ATOM     20  C   UNL d   1     -50.398  14.406  21.562  0.00  0.00     0.003 A 
ATOM     21  C   UNL d   1     -50.259  14.477  22.381  0.00  0.00     0.012 A 
ATOM     22  C   UNL d   1     -50.035  13.819  22.819  0.00  0.00     0.061 A 
ATOM     23 CL   UNL d   1     -49.965  14.161  23.580  0.00  0.00    -0.082 Cl
ENDBRANCH   1  16
TORSDOF 3
ENDMDL
MODEL 3
REMARK VINA RESULT:      -7.5      1.957      3.500
REMARK  3 active torsions:
REMARK  status: ('A' for Active; 'I' for Inactive)
REMARK    1  A    between atoms: C_5  and  C_1 
REMARK    2  A    between atoms: C_4  and  C_2 
REMARK       I    between atoms: N_8  and  C_4 
REMARK    3  A    between atoms: C_10  and  N_8 
ROOT
ATOM      1  C   UNL d   1     -49.751  14.211  22.303  0.00  0.00     0.118 A 
ATOM      2  C   UNL d   1     -49.041  14.536  22.575  0.00  0.00     0.103 A 
ATOM      3  N   UNL d   1     -50.229  14.839  22.074  0.00  0.00    -0.126 NA
ATOM      4  O   UNL d   1     -49.830  15.542  22.199  0.00  0.00    -0.211 OA
ATOM      5  C   UNL d   1     -49.091  15.351  22.511  0.00  0.00     0.131 A 
ATOM      6  C   UNL d   1     -48.495  15.886  22.725  0.00  0.00     0.029 C 
ENDROOT
BRANCH   2   7
ATOM      7  C   UNL d   1     -48.394  14.103  22.862  0.00  0.00     0.283 C 
ATOM      8  N   UNL d   1     -47.715  14.032  22.401  0.00  0.00    -0.204 NA
ATOM      9  O   UNL d   1     -48.445  13.754  23.602  0.00  0.00    -0.265 OA
BRANCH   8  10
ATOM     10  C   UNL d   1     -47.074  13.603  22.685  0.00  0.00     0.130 A 
ATOM     11  C   UNL d   1     -46.492  13.252  22.226  0.00  0.00     0.243 A 
ATOM     12  S   UNL d   1     -45.952  12.877  22.733  0.00  0.00    -0.044 SA
ATOM     13  O   UNL d   1     -46.443  13.266  21.409  0.00  0.00    -0.278 OA
ATOM     14  C   UNL d   1     -46.204  12.997  23.505  0.00  0.00     0.040 A 
ATOM     15  C   UNL d   1     -46.905  13.450  23.478  0.00  0.00     0.030 A 
ENDBRANCH   8  10
ENDBRANCH   2   7
BRANCH   1  16
ATOM     16  C   UNL d   1     -49.944  13.416  22.267  0.00  0.00     0.058 A 
ATOM     17  C   UNL d   1     -49.794  12.977  21.577  0.00  0.00     0.142 A 
ATOM     18  F   UNL d   1     -49.447  13.353  20.930  0.00  0.00    -0.204 F 
ATOM     19  C   UNL d   1     -49.993  12.183  21.553  0.00  0.00     0.030 A 
ATOM     20  C   UNL d   1     -50.339  11.811  22.202  0.00  0.00     0.003 A 
ATOM     21  C   UNL d   1     -50.489  12.253  22.893  0.00  0.00     0.012 A 
ATOM     22  C   UNL d   1     -50.292  13.051  22.921  0.00  0.00     0.061 A 
ATOM     23 CL   UNL d   1     -50.541  13.239  23.698  0.00  0.00    -0.082 Cl
ENDBRANCH   1  16
TORSDOF 3
ENDMDL
MODEL 4
REMARK VINA RESULT:      -7.2      1.950      3.595
REMARK  3 active torsions:
REMARK  status: ('A' for Active; 'I' for Inactive)
REMARK    1  A    between atoms: C_5  and  C_1 
REMARK    2  A    between atoms: C_4  and  C_2 
REMARK       I    between atoms: N_8  and  C_4 
REMARK    3  A    between atoms: C_10  and  N_8 
ROOT
ATOM      1  C   UNL d   1     -48.592  14.987  22.368  0.00  0.00     0.118 A 
ATOM      2  C   UNL d   1     -48.033  14.464  22.679  0.00  0.00     0.103 A 
ATOM      3  N   UNL d   1     -48.185  15.663  22.137  0.00  0.00    -0.126 NA
ATOM      4  O   UNL d   1     -47.388  15.568  22.300  0.00  0.00    -0.211 OA
ATOM      5  C   UNL d   1     -47.296  14.821  22.637  0.00  0.00     0.131 A 
ATOM      6  C   UNL d   1     -46.585  14.481  22.892  0.00  0.00     0.029 C 
ENDROOT
BRANCH   2   7
ATOM      7  C   UNL d   1     -48.198  13.710  22.981  0.00  0.00     0.283 C 
ATOM      8  N   UNL d   1     -47.960  13.042  22.560  0.00  0.00    -0.204 NA
ATOM      9  O   UNL d   1     -48.596  13.643  23.694  0.00  0.00    -0.265 OA
BRANCH   8  10
ATOM     10  C   UNL d   1     -48.124  12.294  22.859  0.00  0.00     0.130 A 
ATOM     11  C   UNL d   1     -48.293  11.627  22.412  0.00  0.00     0.243 A 
ATOM     12  S   UNL d   1     -48.424  10.993  22.931  0.00  0.00    -0.044 SA
ATOM     13  O   UNL d   1     -48.330  11.585  21.595  0.00  0.00    -0.278 OA
ATOM     14  C   UNL d   1     -48.334  11.271  23.698  0.00  0.00     0.040 A 
ATOM     15  C   UNL d   1     -48.147  12.083  23.656  0.00  0.00     0.030 A 
ENDBRANCH   8  10
ENDBRANCH   2   7
BRANCH   1  16
ATOM     16  C   UNL d   1     -49.398  14.861  22.300  0.00  0.00     0.058 A 
ATOM     17  C   UNL d   1     -49.716  14.532  21.606  0.00  0.00     0.142 A 
ATOM     18  F   UNL d   1     -49.208  14.336  20.986  0.00  0.00    -0.204 F 
ATOM     19  C   UNL d   1     -50.524  14.411  21.550  0.00  0.00     0.030 A 
ATOM     20  C   UNL d   1     -51.028  14.609  22.171  0.00  0.00     0.003 A 
ATOM     21  C   UNL d   1     -50.707  14.938  22.867  0.00  0.00     0.012 A 
ATOM     22  C   UNL d   1     -49.897  15.062  22.927  0.00  0.00     0.061 A 
ATOM     23 CL   UNL d   1     -49.852  15.389  23.697  0.00  0.00    -0.082 Cl
ENDBRANCH   1  16
TORSDOF 3
ENDMDL
MODEL 5
REMARK VINA RESULT:      -6.8      9.706     10.605
REMARK  3 active torsions:
REMARK  status: ('A' for Active; 'I' for Inactive)
REMARK    1  A    between atoms: C_5  and  C_1 
REMARK    2  A    between atoms: C_4  and  C_2 
REMARK       I    between atoms: N_8  and  C_4 
REMARK    3  A    between atoms: C_10  and  N_8 
ROOT
ATOM      1  C   UNL d   1     -39.399  13.907  17.688  0.00  0.00     0.118 A 
ATOM      2  C   UNL d   1     -38.949  13.824  18.377  0.00  0.00     0.103 A 
ATOM      3  N   UNL d   1     -39.334  13.199  17.275  0.00  0.00    -0.126 NA
ATOM      4  O   UNL d   1     -38.856  12.684  17.693  0.00  0.00    -0.211 OA
ATOM      5  C   UNL d   1     -38.618  13.075  18.379  0.00  0.00     0.131 A 
ATOM      6  C   UNL d   1     -38.127  12.769  18.973  0.00  0.00     0.029 C 
ENDROOT
BRANCH   2   7
ATOM      7  C   UNL d   1     -38.856  14.405  18.961  0.00  0.00     0.283 C 
ATOM      8  N   UNL d   1     -39.238  14.318  19.687  0.00  0.00    -0.204 NA
ATOM      9  O   UNL d   1     -38.384  15.056  18.804  0.00  0.00    -0.265 OA
BRANCH   8  10
ATOM     10  C   UNL d   1     -39.145  14.894  20.266  0.00  0.00     0.130 A 
ATOM     11  C   UNL d   1     -39.648  15.017  20.902  0.00  0.00     0.243 A 
ATOM     12  S   UNL d   1     -39.352  15.651  21.349  0.00  0.00    -0.044 SA
ATOM     13  O   UNL d   1     -40.327  14.594  21.075  0.00  0.00    -0.278 OA
ATOM     14  C   UNL d   1     -38.665  15.917  20.986  0.00  0.00     0.040 A 
ATOM     15  C   UNL d   1     -38.534  15.446  20.309  0.00  0.00     0.030 A 
ENDBRANCH   8  10
ENDBRANCH   2   7
BRANCH   1  16
ATOM     16  C   UNL d   1     -39.827  14.566  17.458  0.00  0.00     0.058 A 
ATOM     17  C   UNL d   1     -40.630  14.638  17.660  0.00  0.00     0.142 A 
ATOM     18  F   UNL d   1     -40.989  14.036  18.096  0.00  0.00    -0.204 F 
ATOM     19  C   UNL d   1     -41.047  15.301  17.424  0.00  0.00     0.030 A 
ATOM     20  C   UNL d   1     -40.685  15.900  16.989  0.00  0.00     0.003 A 
ATOM     21  C   UNL d   1     -39.880  15.826  16.787  0.00  0.00     0.012 A 
ATOM     22  C   UNL d   1     -39.456  15.161  17.022  0.00  0.00     0.061 A 
ATOM     23 CL   UNL d   1     -38.705  15.340  16.698  0.00  0.00    -0.082 Cl
ENDBRANCH   1  16
TORSDOF 3
ENDMDL
MODEL 6
REMARK VINA RESULT:      -6.5      9.644     10.927
REMARK  3 active torsions:
REMARK  status: ('A' for Active; 'I' for Inactive)
REMARK    1  A    between atoms: C_5  and  C_1 
REMARK    2  A    between atoms: C_4  and  C_2 
REMARK       I    between atoms: N_8  and  C_4 
REMARK    3  A    between atoms: C_10  and  N_8 
ROOT
ATOM      1  C   UNL d   1     -40.038  14.790  17.306  0.00  0.00     0.118 A 
ATOM      2  C   UNL d   1     -40.131  15.234  17.998  0.00  0.00     0.103 A 
ATOM      3  N   UNL d   1     -40.775  14.757  16.943  0.00  0.00    -0.126 NA
ATOM      4  O   UNL d   1     -41.318  15.170  17.394  0.00  0.00    -0.211 OA
ATOM      5  C   UNL d   1     -40.915  15.467  18.050  0.00  0.00     0.131 A 
ATOM      6  C   UNL d   1     -41.239  15.922  18.662  0.00  0.00     0.029 C 
ENDROOT
BRANCH   2   7
ATOM      7  C   UNL d   1     -39.528  15.410  18.539  0.00  0.00     0.283 C 
ATOM      8  N   UNL d   1     -39.543  15.069  19.289  0.00  0.00    -0.204 NA
ATOM      9  O   UNL d   1     -38.927  15.921  18.315  0.00  0.00    -0.265 OA
BRANCH   8  10
ATOM     10  C   UNL d   1     -38.945  15.243  19.826  0.00  0.00     0.130 A 
ATOM     11  C   UNL d   1     -38.723  14.775  20.462  0.00  0.00     0.243 A 
ATOM     12  S   UNL d   1     -38.100  15.154  20.859  0.00  0.00    -0.044 SA
ATOM     13  O   UNL d   1     -39.052  14.057  20.677  0.00  0.00    -0.278 OA
ATOM     14  C   UNL d   1     -37.940  15.857  20.465  0.00  0.00     0.040 A 
ATOM     15  C   UNL d   1     -38.466  15.914  19.819  0.00  0.00     0.030 A 
ENDBRANCH   8  10
ENDBRANCH   2   7
BRANCH   1  16
ATOM     16  C   UNL d   1     -39.348  14.447  17.032  0.00  0.00     0.058 A 
ATOM     17  C   UNL d   1     -39.160  13.661  17.231  0.00  0.00     0.142 A 
ATOM     18  F   UNL d   1     -39.680  13.233  17.707  0.00  0.00    -0.204 F 
ATOM     19  C   UNL d   1     -38.466  13.330  16.950  0.00  0.00     0.030 A 
ATOM     20  C   UNL d   1     -37.949  13.761  16.474  0.00  0.00     0.003 A 
ATOM     21  C   UNL d   1     -38.139  14.548  16.277  0.00  0.00     0.012 A 
ATOM     22  C   UNL d   1     -38.835  14.886  16.556  0.00  0.00     0.061 A 
ATOM     23 CL   UNL d   1     -38.776  15.650  16.220  0.00  0.00    -0.082 Cl
ENDBRANCH   1  16
TORSDOF 3
ENDMDL
MODEL 7
REMARK VINA RESULT:      -6.1      8.673     10.056
REMARK  3 active torsions:
REMARK  status: ('A' for Active; 'I' for Inactive)
REMARK    1  A    between atoms: C_5  and  C_1 
REMARK    2  A    between atoms: C_4  and  C_2 
REMARK       I    between atoms: N_8  and  C_4 
REMARK    3  A    between atoms: C_10  and  N_8 
ROOT
ATOM      1  C   UNL d   1     -39.361  14.203  20.549  0.00  0.00     0.118 A 
ATOM      2  C   UNL d   1     -39.015  14.204  19.798  0.00  0.00     0.103 A 
ATOM      3  N   UNL d   1     -38.971  13.631  20.992  0.00  0.00    -0.126 NA
ATOM      4  O   UNL d   1     -38.394  13.279  20.531  0.00  0.00    -0.211 OA
ATOM      5  C   UNL d   1     -38.423  13.637  19.789  0.00  0.00     0.131 A 
ATOM      6  C   UNL d   1     -37.940  13.461  19.138  0.00  0.00     0.029 C 
ENDROOT
BRANCH   2   7
ATOM      7  C   UNL d   1     -39.235  14.696  19.169  0.00  0.00     0.283 C 
ATOM      8  N   UNL d   1     -39.630  14.376  18.520  0.00  0.00    -0.204 NA
ATOM      9  O   UNL d   1     -39.056  15.495  19.206  0.00  0.00    -0.265 OA
BRANCH   8  10
ATOM     10  C   UNL d   1     -39.849  14.864  17.896  0.00  0.00     0.130 A 
ATOM     11  C   UNL d   1     -40.503  14.758  17.413  0.00  0.00     0.243 A 
ATOM     12  S   UNL d   1     -40.518  15.374  16.857  0.00  0.00    -0.044 SA
ATOM     13  O   UNL d   1     -41.052  14.152  17.463  0.00  0.00    -0.278 OA
ATOM     14  C   UNL d   1     -39.871  15.859  16.999  0.00  0.00     0.040 A 
ATOM     15  C   UNL d   1     -39.452  15.543  17.648  0.00  0.00     0.030 A 
ENDBRANCH   8  10
ENDBRANCH   2   7
BRANCH   1  16
ATOM     16  C   UNL d   1     -39.974  14.680  20.807  0.00  0.00     0.058 A 
ATOM     17  C   UNL d   1     -39.824  15.455  21.069  0.00  0.00     0.142 A 
ATOM     18  F   UNL d   1     -39.048  15.736  21.065  0.00  0.00    -0.204 F 
ATOM     19  C   UNL d   1     -40.446  15.922  21.324  0.00  0.00     0.030 A 
ATOM     20  C   UNL d   1     -41.220  15.638  21.327  0.00  0.00     0.003 A 
ATOM     21  C   UNL d   1     -41.368  14.860  21.064  0.00  0.00     0.012 A 
ATOM     22  C   UNL d   1     -40.747  14.387  20.806  0.00  0.00     0.061 A 
ATOM     23 CL   UNL d   1     -41.162  13.688  20.608  0.00  0.00    -0.082 Cl
ENDBRANCH   1  16
TORSDOF 3
ENDMDL
