MODEL 1
REMARK VINA RESULT:      -5.9      0.000      0.000
REMARK  4 active torsions:
REMARK  status: ('A' for Active; 'I' for Inactive)
REMARK    1  A    between atoms: C_2  and  N_1 
REMARK       I    between atoms: C_3  and  N_1 
REMARK    2  A    between atoms: C_6  and  C_3 
REMARK    3  A    between atoms: O_7  and  C_6 
REMARK    4  A    between atoms: C_9  and  O_7 
ROOT
ATOM      1  C   UNL d   1     -41.314-122.725 -51.997  0.00  0.00     0.158 C 
ATOM      2  C   UNL d   1     -41.123-123.514 -51.914  0.00  0.00     0.032 C 
ENDROOT
BRANCH   1   3
ATOM      3  C   UNL d   1     -41.424-122.404 -52.747  0.00  0.00     0.304 C 
ATOM      4  N   UNL d   1     -41.827-122.824 -53.322  0.00  0.00    -0.181 NA
ATOM      5  O   UNL d   1     -41.126-121.654 -52.919  0.00  0.00    -0.263 OA
BRANCH   4   6
ATOM      6  C   UNL d   1     -41.938-122.504 -54.073  0.00  0.00     0.197 A 
ATOM      7  N   UNL d   1     -42.532-121.967 -54.288  0.00  0.00    -0.219 NA
ATOM      8  C   UNL d   1     -42.440-121.792 -55.087  0.00  0.00     0.108 A 
ATOM      9  C   UNL d   1     -41.784-122.221 -55.371  0.00  0.00     0.059 A 
ATOM     10  S   UNL d   1     -41.478-122.658 -54.744  0.00  0.00    -0.046 SA
ENDBRANCH   4   6
ENDBRANCH   1   3
BRANCH   1  11
ATOM     11  O   UNL d   1     -41.397-122.252 -51.326  0.00  0.00    -0.302 OA
BRANCH  11  12
ATOM     12  C   UNL d   1     -41.654-122.581 -50.616  0.00  0.00     0.100 A 
ATOM     13  C   UNL d   1     -42.422-122.426 -50.339  0.00  0.00     0.025 A 
ATOM     14  C   UNL d   1     -42.674-122.760 -49.625  0.00  0.00     0.002 A 
ATOM     15  C   UNL d   1     -42.169-123.244 -49.187  0.00  0.00     0.000 A 
ATOM     16  C   UNL d   1     -41.408-123.400 -49.458  0.00  0.00     0.002 A 
ATOM     17  C   UNL d   1     -41.145-123.069 -50.174  0.00  0.00     0.025 A 
ENDBRANCH  11  12
ENDBRANCH   1  11
TORSDOF 4
ENDMDL
MODEL 2
REMARK VINA RESULT:      -5.6      1.567      4.065
REMARK  4 active torsions:
REMARK  status: ('A' for Active; 'I' for Inactive)
REMARK    1  A    between atoms: C_2  and  N_1 
REMARK       I    between atoms: C_3  and  N_1 
REMARK    2  A    between atoms: C_6  and  C_3 
REMARK    3  A    between atoms: O_7  and  C_6 
REMARK    4  A    between atoms: C_9  and  O_7 
ROOT
ATOM      1  C   UNL d   1     -41.249-122.754 -52.650  0.00  0.00     0.158 C 
ATOM      2  C   UNL d   1     -41.158-123.508 -52.948  0.00  0.00     0.032 C 
ENDROOT
BRANCH   1   3
ATOM      3  C   UNL d   1     -41.392-122.642 -51.847  0.00  0.00     0.304 C 
ATOM      4  N   UNL d   1     -41.800-123.207 -51.417  0.00  0.00    -0.181 NA
ATOM      5  O   UNL d   1     -41.123-121.957 -51.474  0.00  0.00    -0.263 OA
BRANCH   4   6
ATOM      6  C   UNL d   1     -41.944-123.096 -50.613  0.00  0.00     0.197 A 
ATOM      7  N   UNL d   1     -42.575-122.667 -50.289  0.00  0.00    -0.219 NA
ATOM      8  C   UNL d   1     -42.508-122.697 -49.469  0.00  0.00     0.108 A 
ATOM      9  C   UNL d   1     -41.831-123.147 -49.281  0.00  0.00     0.059 A 
ATOM     10  S   UNL d   1     -41.487-123.391 -49.989  0.00  0.00    -0.046 SA
ENDBRANCH   4   6
ENDBRANCH   1   3
BRANCH   1  11
ATOM     11  O   UNL d   1     -41.197-122.105 -53.157  0.00  0.00    -0.302 OA
BRANCH  11  12
ATOM     12  C   UNL d   1     -41.533-122.138 -53.908  0.00  0.00     0.100 A 
ATOM     13  C   UNL d   1     -42.240-121.732 -54.066  0.00  0.00     0.025 A 
ATOM     14  C   UNL d   1     -42.572-121.769 -54.823  0.00  0.00     0.002 A 
ATOM     15  C   UNL d   1     -42.208-122.206 -55.420  0.00  0.00     0.000 A 
ATOM     16  C   UNL d   1     -41.507-122.610 -55.268  0.00  0.00     0.002 A 
ATOM     17  C   UNL d   1     -41.165-122.580 -54.511  0.00  0.00     0.025 A 
ENDBRANCH  11  12
ENDBRANCH   1  11
TORSDOF 4
ENDMDL
MODEL 3
REMARK VINA RESULT:      -4.2      2.060      4.218
REMARK  4 active torsions:
REMARK  status: ('A' for Active; 'I' for Inactive)
REMARK    1  A    between atoms: C_2  and  N_1 
REMARK       I    between atoms: C_3  and  N_1 
REMARK    2  A    between atoms: C_6  and  C_3 
REMARK    3  A    between atoms: O_7  and  C_6 
REMARK    4  A    between atoms: C_9  and  O_7 
ROOT
ATOM      1  C   UNL d   1     -41.430-122.747 -51.553  0.00  0.00     0.158 C 
ATOM      2  C   UNL d   1     -41.530-121.966 -51.767  0.00  0.00     0.032 C 
ENDROOT
BRANCH   1   3
ATOM      3  C   UNL d   1     -41.634-122.997 -50.795  0.00  0.00     0.304 C 
ATOM      4  N   UNL d   1     -42.324-122.731 -50.444  0.00  0.00    -0.181 NA
ATOM      5  O   UNL d   1     -41.139-123.517 -50.388  0.00  0.00    -0.263 OA
BRANCH   4   6
ATOM      6  C   UNL d   1     -42.529-122.981 -49.686  0.00  0.00     0.197 A 
ATOM      7  N   UNL d   1     -42.303-122.614 -48.977  0.00  0.00    -0.219 NA
ATOM      8  C   UNL d   1     -42.627-123.043 -48.354  0.00  0.00     0.108 A 
ATOM      9  C   UNL d   1     -43.058-123.680 -48.676  0.00  0.00     0.059 A 
ATOM     10  S   UNL d   1     -42.995-123.638 -49.496  0.00  0.00    -0.046 SA
ENDBRANCH   4   6
ENDBRANCH   1   3
BRANCH   1  11
ATOM     11  O   UNL d   1     -41.123-123.285 -52.099  0.00  0.00    -0.302 OA
BRANCH  11  12
ATOM     12  C   UNL d   1     -41.237-123.166 -52.905  0.00  0.00     0.100 A 
ATOM     13  C   UNL d   1     -41.122-122.412 -53.235  0.00  0.00     0.025 A 
ATOM     14  C   UNL d   1     -41.239-122.299 -54.047  0.00  0.00     0.002 A 
ATOM     15  C   UNL d   1     -41.466-122.928 -54.530  0.00  0.00     0.000 A 
ATOM     16  C   UNL d   1     -41.580-123.676 -54.207  0.00  0.00     0.002 A 
ATOM     17  C   UNL d   1     -41.467-123.801 -53.393  0.00  0.00     0.025 A 
ENDBRANCH  11  12
ENDBRANCH   1  11
TORSDOF 4
ENDMDL
