MODEL 1
REMARK VINA RESULT:      48.5      0.000      0.000
REMARK  4 active torsions:
REMARK  status: ('A' for Active; 'I' for Inactive)
REMARK    1  A    between atoms: C_14  and  C_4 
REMARK       I    between atoms: C_6  and  N_8 
REMARK    2  A    between atoms: C_9  and  C_6 
REMARK    3  A    between atoms: N_8  and  C_14 
REMARK    4  A    between atoms: O_16  and  C_15 
ROOT
ATOM      1  C   UNL d   1     -50.758  26.851  33.536  0.00  0.00     0.279 C 
ATOM      2  N   UNL d   1     -50.022  27.193  33.674  0.00  0.00    -0.205 NA
ATOM      3  O   UNL d   1     -51.428  27.331  33.476  0.00  0.00    -0.265 OA
ENDROOT
BRANCH   1   4
ATOM      4  C   UNL d   1     -50.823  26.037  33.460  0.00  0.00     0.060 A 
ATOM      5  C   UNL d   1     -51.568  25.685  33.421  0.00  0.00     0.029 A 
ATOM      6  C   UNL d   1     -51.623  24.862  33.344  0.00  0.00     0.094 A 
ATOM      7  C   UNL d   1     -50.939  24.391  33.306  0.00  0.00     0.024 A 
ATOM      8  C   UNL d   1     -50.201  24.749  33.345  0.00  0.00     0.002 A 
ATOM      9  C   UNL d   1     -50.131  25.570  33.422  0.00  0.00     0.005 A 
BRANCH   6  10
ATOM     10  O   UNL d   1     -52.365  24.513  33.306  0.00  0.00    -0.328 OA
ATOM     11  C   UNL d   1     -52.465  23.729  33.564  0.00  0.00     0.181 C 
ENDBRANCH   6  10
ENDBRANCH   1   4
BRANCH   2  12
ATOM     12  C   UNL d   1     -49.955  28.010  33.751  0.00  0.00     0.123 C 
BRANCH  12  13
ATOM     13  C   UNL d   1     -49.340  28.337  34.188  0.00  0.00     0.120 A 
ATOM     14  N   UNL d   1     -48.718  27.923  34.535  0.00  0.00    -0.219 NA
ATOM     15  C   UNL d   1     -48.228  28.467  34.919  0.00  0.00     0.180 A 
ATOM     16  N   UNL d   1     -48.552  29.228  34.807  0.00  0.00    -0.282 N 
ATOM     17  S   UNL d   1     -47.543  28.550  35.370  0.00  0.00    -0.048 SA
ATOM     18  C   UNL d   1     -49.240  29.142  34.354  0.00  0.00     0.103 A 
ATOM     19  C   UNL d   1     -48.064  29.765  35.189  0.00  0.00     0.089 A 
ATOM     20  C   UNL d   1     -47.444  29.356  35.535  0.00  0.00     0.057 A 
ENDBRANCH  12  13
ENDBRANCH   2  12
TORSDOF 4
ENDMDL
MODEL 2
REMARK VINA RESULT:      49.9      0.848      1.165
REMARK  4 active torsions:
REMARK  status: ('A' for Active; 'I' for Inactive)
REMARK    1  A    between atoms: C_14  and  C_4 
REMARK       I    between atoms: C_6  and  N_8 
REMARK    2  A    between atoms: C_9  and  C_6 
REMARK    3  A    between atoms: N_8  and  C_14 
REMARK    4  A    between atoms: O_16  and  C_15 
ROOT
ATOM      1  C   UNL d   1     -50.086  26.239  33.461  0.00  0.00     0.279 C 
ATOM      2  N   UNL d   1     -49.839  27.001  33.648  0.00  0.00    -0.205 NA
ATOM      3  O   UNL d   1     -49.525  25.647  33.325  0.00  0.00    -0.265 OA
ENDROOT
BRANCH   1   4
ATOM      4  C   UNL d   1     -50.888  26.070  33.409  0.00  0.00     0.060 A 
ATOM      5  C   UNL d   1     -51.143  25.286  33.384  0.00  0.00     0.029 A 
ATOM      6  C   UNL d   1     -51.953  25.126  33.332  0.00  0.00     0.094 A 
ATOM      7  C   UNL d   1     -52.508  25.743  33.306  0.00  0.00     0.024 A 
ATOM      8  C   UNL d   1     -52.248  26.521  33.331  0.00  0.00     0.002 A 
ATOM      9  C   UNL d   1     -51.440  26.696  33.383  0.00  0.00     0.005 A 
BRANCH   6  10
ATOM     10  O   UNL d   1     -52.205  24.345  33.307  0.00  0.00    -0.328 OA
ATOM     11  C   UNL d   1     -52.895  24.122  33.714  0.00  0.00     0.181 C 
ENDBRANCH   6  10
ENDBRANCH   1   4
BRANCH   2  12
ATOM     12  C   UNL d   1     -49.035  27.172  33.700  0.00  0.00     0.123 C 
BRANCH  12  13
ATOM     13  C   UNL d   1     -48.774  27.803  34.159  0.00  0.00     0.120 A 
ATOM     14  N   UNL d   1     -48.387  27.749  34.884  0.00  0.00    -0.219 NA
ATOM     15  C   UNL d   1     -48.227  28.515  35.149  0.00  0.00     0.180 A 
ATOM     16  N   UNL d   1     -48.520  29.051  34.580  0.00  0.00    -0.282 N 
ATOM     17  S   UNL d   1     -47.890  28.956  35.758  0.00  0.00    -0.048 SA
ATOM     18  C   UNL d   1     -48.858  28.605  33.969  0.00  0.00     0.103 A 
ATOM     19  C   UNL d   1     -48.359  29.809  34.846  0.00  0.00     0.089 A 
ATOM     20  C   UNL d   1     -47.974  29.758  35.567  0.00  0.00     0.057 A 
ENDBRANCH  12  13
ENDBRANCH   2  12
TORSDOF 4
ENDMDL
