MODEL 1
REMARK VINA RESULT:      -3.8      0.000      0.000
REMARK  7 active torsions:
REMARK  status: ('A' for Active; 'I' for Inactive)
REMARK    1  A    between atoms: C_2  and  S_1 
REMARK    2  A    between atoms: N_7  and  S_1 
REMARK    3  A    between atoms: C_5  and  C_6 
REMARK    4  A    between atoms: C_6  and  C_8 
REMARK    5  A    between atoms: C_15  and  N_7 
REMARK    6  A    between atoms: C_8  and  C_12 
REMARK    7  A    between atoms: C_18  and  C_15 
ROOT
ATOM      1  C   UNL d   1     -41.589-122.630 -53.028  0.00  0.00     0.105 A 
ATOM      2  C   UNL d   1     -41.284-123.385 -53.074  0.00  0.00     0.012 A 
ATOM      3  C   UNL d   1     -41.742-122.287 -52.276  0.00  0.00     0.013 A 
ATOM      4  C   UNL d   1     -41.582-122.718 -51.592  0.00  0.00     0.001 A 
ATOM      5  C   UNL d   1     -41.124-123.816 -52.390  0.00  0.00     0.001 A 
ATOM      6  C   UNL d   1     -41.268-123.494 -51.654  0.00  0.00     0.000 A 
ATOM      7  C   UNL d   1     -41.133-123.721 -53.839  0.00  0.00     0.001 C 
ENDROOT
BRANCH   1   8
ATOM      8  S   UNL d   1     -41.749-122.201 -53.709  0.00  0.00     0.285 S 
ATOM      9  O   UNL d   1     -41.250-121.595 -53.444  0.00  0.00    -0.198 OA
ATOM     10  O   UNL d   1     -42.254-122.816 -53.978  0.00  0.00    -0.198 OA
BRANCH   8  11
ATOM     11  N   UNL d   1     -41.912-121.763 -54.407  0.00  0.00    -0.153 NA
BRANCH  11  12
ATOM     12  C   UNL d   1     -42.281-122.129 -55.050  0.00  0.00     0.157 C 
BRANCH  12  13
ATOM     13  C   UNL d   1     -42.315-121.746 -55.779  0.00  0.00     0.256 C 
ATOM     14  O   UNL d   1     -42.888-121.965 -56.336  0.00  0.00    -0.281 OA
ENDBRANCH  12  13
ENDBRANCH  11  12
ENDBRANCH   8  11
ENDBRANCH   1   8
BRANCH   4  15
ATOM     15  C   UNL d   1     -41.737-122.370 -50.837  0.00  0.00     0.006 C 
BRANCH  15  16
ATOM     16  C   UNL d   1     -41.642-122.830 -50.163  0.00  0.00     0.070 C 
BRANCH  16  17
ATOM     17  C   UNL d   1     -41.982-122.590 -49.442  0.00  0.00     0.211 C 
ATOM     18  O   UNL d   1     -41.555-122.693 -48.743  0.00  0.00    -0.644 OA
ATOM     19  O   UNL d   1     -42.730-122.256 -49.427  0.00  0.00    -0.644 OA
ENDBRANCH  16  17
ENDBRANCH  15  16
ENDBRANCH   4  15
TORSDOF 7
ENDMDL
MODEL 2
REMARK VINA RESULT:      -3.1      1.017      1.503
REMARK  7 active torsions:
REMARK  status: ('A' for Active; 'I' for Inactive)
REMARK    1  A    between atoms: C_2  and  S_1 
REMARK    2  A    between atoms: N_7  and  S_1 
REMARK    3  A    between atoms: C_5  and  C_6 
REMARK    4  A    between atoms: C_6  and  C_8 
REMARK    5  A    between atoms: C_15  and  N_7 
REMARK    6  A    between atoms: C_8  and  C_12 
REMARK    7  A    between atoms: C_18  and  C_15 
ROOT
ATOM      1  C   UNL d   1     -41.739-122.614 -51.730  0.00  0.00     0.105 A 
ATOM      2  C   UNL d   1     -41.376-123.341 -51.803  0.00  0.00     0.012 A 
ATOM      3  C   UNL d   1     -41.992-122.347 -50.974  0.00  0.00     0.013 A 
ATOM      4  C   UNL d   1     -41.869-122.823 -50.313  0.00  0.00     0.001 A 
ATOM      5  C   UNL d   1     -41.254-123.817 -51.142  0.00  0.00     0.001 A 
ATOM      6  C   UNL d   1     -41.494-123.570 -50.403  0.00  0.00     0.000 A 
ATOM      7  C   UNL d   1     -41.126-123.600 -52.572  0.00  0.00     0.001 C 
ENDROOT
BRANCH   1   8
ATOM      8  S   UNL d   1     -41.861-122.140 -52.389  0.00  0.00     0.285 S 
ATOM      9  O   UNL d   1     -42.576-122.532 -52.539  0.00  0.00    -0.198 OA
ATOM     10  O   UNL d   1     -41.137-121.743 -52.237  0.00  0.00    -0.198 OA
BRANCH   8  11
ATOM     11  N   UNL d   1     -41.986-121.654 -53.063  0.00  0.00    -0.153 NA
BRANCH  11  12
ATOM     12  C   UNL d   1     -41.929-121.978 -53.822  0.00  0.00     0.157 C 
BRANCH  12  13
ATOM     13  C   UNL d   1     -42.064-121.504 -54.484  0.00  0.00     0.256 C 
ATOM     14  O   UNL d   1     -41.911-121.798 -55.243  0.00  0.00    -0.281 OA
ENDBRANCH  12  13
ENDBRANCH  11  12
ENDBRANCH   8  11
ENDBRANCH   1   8
BRANCH   4  15
ATOM     15  C   UNL d   1     -42.124-122.553 -49.554  0.00  0.00     0.006 C 
BRANCH  15  16
ATOM     16  C   UNL d   1     -42.118-123.080 -48.924  0.00  0.00     0.070 C 
BRANCH  16  17
ATOM     17  C   UNL d   1     -42.358-122.829 -48.167  0.00  0.00     0.211 C 
ATOM     18  O   UNL d   1     -43.052-122.389 -48.091  0.00  0.00    -0.644 OA
ATOM     19  O   UNL d   1     -41.910-123.017 -47.507  0.00  0.00    -0.644 OA
ENDBRANCH  16  17
ENDBRANCH  15  16
ENDBRANCH   4  15
TORSDOF 7
ENDMDL
MODEL 3
REMARK VINA RESULT:      -2.3      1.092      1.615
REMARK  7 active torsions:
REMARK  status: ('A' for Active; 'I' for Inactive)
REMARK    1  A    between atoms: C_2  and  S_1 
REMARK    2  A    between atoms: N_7  and  S_1 
REMARK    3  A    between atoms: C_5  and  C_6 
REMARK    4  A    between atoms: C_6  and  C_8 
REMARK    5  A    between atoms: C_15  and  N_7 
REMARK    6  A    between atoms: C_8  and  C_12 
REMARK    7  A    between atoms: C_18  and  C_15 
ROOT
ATOM      1  C   UNL d   1     -41.641-122.390 -52.069  0.00  0.00     0.105 A 
ATOM      2  C   UNL d   1     -41.374-121.656 -51.838  0.00  0.00     0.012 A 
ATOM      3  C   UNL d   1     -41.892-122.945 -51.490  0.00  0.00     0.013 A 
ATOM      4  C   UNL d   1     -41.865-122.742 -50.692  0.00  0.00     0.001 A 
ATOM      5  C   UNL d   1     -41.346-121.452 -51.040  0.00  0.00     0.001 A 
ATOM      6  C   UNL d   1     -41.587-121.981 -50.468  0.00  0.00     0.000 A 
ATOM      7  C   UNL d   1     -41.123-121.103 -52.431  0.00  0.00     0.001 C 
ENDROOT
BRANCH   1   8
ATOM      8  S   UNL d   1     -41.669-122.593 -52.864  0.00  0.00     0.285 S 
ATOM      9  O   UNL d   1     -41.812-121.801 -53.062  0.00  0.00    -0.198 OA
ATOM     10  O   UNL d   1     -41.523-123.396 -52.664  0.00  0.00    -0.198 OA
BRANCH   8  11
ATOM     11  N   UNL d   1     -41.696-122.801 -53.678  0.00  0.00    -0.153 NA
BRANCH  11  12
ATOM     12  C   UNL d   1     -42.156-122.358 -54.203  0.00  0.00     0.157 C 
BRANCH  12  13
ATOM     13  C   UNL d   1     -42.198-122.572 -54.998  0.00  0.00     0.256 C 
ATOM     14  O   UNL d   1     -42.792-122.258 -55.483  0.00  0.00    -0.281 OA
ENDBRANCH  12  13
ENDBRANCH  11  12
ENDBRANCH   8  11
ENDBRANCH   1   8
BRANCH   4  15
ATOM     15  C   UNL d   1     -42.118-123.301 -50.112  0.00  0.00     0.006 C 
BRANCH  15  16
ATOM     16  C   UNL d   1     -42.304-123.033 -49.359  0.00  0.00     0.070 C 
BRANCH  16  17
ATOM     17  C   UNL d   1     -42.626-123.556 -48.796  0.00  0.00     0.211 C 
ATOM     18  O   UNL d   1     -43.404-123.817 -48.889  0.00  0.00    -0.644 OA
ATOM     19  O   UNL d   1     -42.176-123.808 -48.160  0.00  0.00    -0.644 OA
ENDBRANCH  16  17
ENDBRANCH  15  16
ENDBRANCH   4  15
TORSDOF 7
ENDMDL
