MODEL 1
REMARK VINA RESULT:      53.2      0.000      0.000
REMARK  1 active torsions:
REMARK  status: ('A' for Active; 'I' for Inactive)
REMARK    1  A    between atoms: N_11  and  C_4 
ROOT
ATOM      1  N   UNL d   1     -58.682 -98.763 -44.151  0.00  0.00    -0.195 N 
ATOM      2  C   UNL d   1     -58.274 -98.762 -44.874  0.00  0.00     0.168 A 
ATOM      3  C   UNL d   1     -58.682 -98.761 -45.583  0.00  0.00     0.073 A 
ATOM      4  C   UNL d   1     -58.257 -98.765 -43.453  0.00  0.00     0.153 A 
ATOM      5  N   UNL d   1     -59.907 -98.762 -44.843  0.00  0.00    -0.143 NA
ATOM      6  C   UNL d   1     -59.499 -98.761 -45.566  0.00  0.00     0.185 A 
ATOM      7  N   UNL d   1     -57.452 -98.762 -44.879  0.00  0.00    -0.227 NA
ATOM      8  C   UNL d   1     -58.279 -98.760 -46.298  0.00  0.00     0.007 A 
ATOM      9  N   UNL d   1     -59.927 -98.760 -46.275  0.00  0.00    -0.225 NA
ATOM     10  C   UNL d   1     -57.444 -98.765 -43.453  0.00  0.00     0.057 A 
ATOM     11  C   UNL d   1     -58.686 -98.759 -47.007  0.00  0.00     0.019 A 
ATOM     12  C   UNL d   1     -57.036 -98.764 -44.176  0.00  0.00     0.086 A 
ATOM     13  C   UNL d   1     -59.519 -98.759 -46.998  0.00  0.00     0.083 A 
ATOM     14  C   UNL d   1     -57.453 -98.760 -46.302  0.00  0.00     0.000 C 
ATOM     15  C   UNL d   1     -56.182 -98.764 -44.177  0.00  0.00     0.021 C 
ATOM     16  C   UNL d   1     -59.931 -98.758 -47.700  0.00  0.00     0.021 C 
ENDROOT
BRANCH   4  17
ATOM     17  N   UNL d   1     -58.686 -98.766 -42.712  0.00  0.00    -0.285 N 
ATOM     18  C   UNL d   1     -58.252 -98.775 -41.968  0.00  0.00     0.108 A 
ATOM     19  C   UNL d   1     -58.680 -98.776 -41.237  0.00  0.00     0.142 A 
ATOM     20  O   UNL d   1     -59.532 -98.768 -41.239  0.00  0.00    -0.300 OA
ATOM     21  C   UNL d   1     -59.954 -98.759 -41.977  0.00  0.00     0.142 A 
ATOM     22  C   UNL d   1     -59.526 -98.758 -42.708  0.00  0.00     0.108 A 
ENDBRANCH   4  17
TORSDOF 1
ENDMDL
