MODEL 1
REMARK VINA RESULT:      -6.1      0.000      0.000
REMARK  3 active torsions:
REMARK  status: ('A' for Active; 'I' for Inactive)
REMARK    1  A    between atoms: C_13  and  C_4 
REMARK    2  A    between atoms: O_15  and  C_13 
REMARK    3  A    between atoms: C_16  and  O_15 
ROOT
ATOM      1  C   UNL d   1     -41.381-122.672 -51.755  0.00  0.00     0.144 C 
ENDROOT
BRANCH   1   2
ATOM      2  C   UNL d   1     -41.467-122.572 -52.559  0.00  0.00     0.142 A 
ATOM      3  N   UNL d   1     -41.884-121.977 -52.947  0.00  0.00    -0.057 NA
ATOM      4  C   UNL d   1     -41.827-122.086 -53.761  0.00  0.00     0.735 A 
ATOM      5  N   UNL d   1     -41.363-122.766 -53.903  0.00  0.00    -0.136 N 
ATOM      6  N   UNL d   1     -42.130-121.665 -54.397  0.00  0.00    -0.059 NA
ATOM      7  C   UNL d   1     -41.151-123.051 -53.152  0.00  0.00     0.120 A 
ATOM      8  C   UNL d   1     -41.208-123.017 -54.672  0.00  0.00     0.100 A 
ATOM      9  C   UNL d   1     -41.496-122.616 -55.306  0.00  0.00     0.041 A 
ATOM     10  C   UNL d   1     -41.974-121.918 -55.185  0.00  0.00     0.119 A 
ENDBRANCH   1   2
BRANCH   1  11
ATOM     11  O   UNL d   1     -41.912-123.132 -51.337  0.00  0.00    -0.303 OA
BRANCH  11  12
ATOM     12  C   UNL d   1     -41.843-123.217 -50.519  0.00  0.00     0.100 A 
ATOM     13  C   UNL d   1     -42.433-122.923 -50.038  0.00  0.00     0.025 A 
ATOM     14  C   UNL d   1     -42.368-123.006 -49.221  0.00  0.00     0.013 A 
ATOM     15  C   UNL d   1     -42.981-122.701 -48.722  0.00  0.00     0.001 C 
ATOM     16  C   UNL d   1     -41.712-123.384 -48.884  0.00  0.00     0.058 A 
ATOM     17  C   UNL d   1     -41.123-123.677 -49.366  0.00  0.00     0.013 A 
ATOM     18 CL   UNL d   1     -41.630-123.477 -48.059  0.00  0.00    -0.082 Cl
ATOM     19  C   UNL d   1     -41.191-123.592 -50.185  0.00  0.00     0.026 A 
ENDBRANCH  11  12
ENDBRANCH   1  11
TORSDOF 3
ENDMDL
MODEL 2
REMARK VINA RESULT:      -5.3      2.236      4.734
REMARK  3 active torsions:
REMARK  status: ('A' for Active; 'I' for Inactive)
REMARK    1  A    between atoms: C_13  and  C_4 
REMARK    2  A    between atoms: O_15  and  C_13 
REMARK    3  A    between atoms: C_16  and  O_15 
ROOT
ATOM      1  C   UNL d   1     -41.391-122.854 -51.782  0.00  0.00     0.144 C 
ENDROOT
BRANCH   1   2
ATOM      2  C   UNL d   1     -41.612-122.897 -51.000  0.00  0.00     0.142 A 
ATOM      3  N   UNL d   1     -42.324-122.652 -50.668  0.00  0.00    -0.057 NA
ATOM      4  C   UNL d   1     -42.315-122.798 -49.857  0.00  0.00     0.735 A 
ATOM      5  N   UNL d   1     -41.581-123.144 -49.660  0.00  0.00    -0.136 N 
ATOM      6  N   UNL d   1     -42.869-122.666 -49.266  0.00  0.00    -0.059 NA
ATOM      7  C   UNL d   1     -41.161-123.197 -50.376  0.00  0.00     0.120 A 
ATOM      8  C   UNL d   1     -41.408-123.353 -48.883  0.00  0.00     0.100 A 
ATOM      9  C   UNL d   1     -41.939-123.231 -48.292  0.00  0.00     0.041 A 
ATOM     10  C   UNL d   1     -42.697-122.879 -48.469  0.00  0.00     0.119 A 
ENDBRANCH   1   2
BRANCH   1  11
ATOM     11  O   UNL d   1     -41.802-122.375 -52.302  0.00  0.00    -0.303 OA
BRANCH  11  12
ATOM     12  C   UNL d   1     -41.724-122.473 -53.117  0.00  0.00     0.100 A 
ATOM     13  C   UNL d   1     -42.174-122.012 -53.618  0.00  0.00     0.025 A 
ATOM     14  C   UNL d   1     -42.099-122.107 -54.433  0.00  0.00     0.013 A 
ATOM     15  C   UNL d   1     -42.567-121.628 -54.952  0.00  0.00     0.001 C 
ATOM     16  C   UNL d   1     -41.572-122.664 -54.748  0.00  0.00     0.058 A 
ATOM     17  C   UNL d   1     -41.123-123.124 -54.247  0.00  0.00     0.013 A 
ATOM     18 CL   UNL d   1     -41.483-122.773 -55.570  0.00  0.00    -0.082 Cl
ATOM     19  C   UNL d   1     -41.200-123.026 -53.431  0.00  0.00     0.026 A 
ENDBRANCH  11  12
ENDBRANCH   1  11
TORSDOF 3
ENDMDL
