MODEL 1
REMARK VINA RESULT:      -3.6      0.000      0.000
REMARK  5 active torsions:
REMARK  status: ('A' for Active; 'I' for Inactive)
REMARK    1  A    between atoms: N_10  and  C_2 
REMARK    2  A    between atoms: C_14  and  C_3 
REMARK    3  A    between atoms: C_5  and  S_13 
REMARK       I    between atoms: C_12  and  N_10 
REMARK    4  A    between atoms: C_16  and  C_12 
REMARK    5  A    between atoms: S_13  and  C_16 
ROOT
ATOM      1  N   UNL d   1      33.125  22.179 -19.692  0.00  0.00    -0.051 NA
ATOM      2  C   UNL d   1      33.040  22.333 -20.495  0.00  0.00     0.760 A 
ATOM      3  C   UNL d   1      32.862  22.837 -19.283  0.00  0.00     0.147 A 
ATOM      4  N   UNL d   1      32.727  23.078 -20.581  0.00  0.00    -0.019 NA
ATOM      5  S   UNL d   1      32.616  23.392 -19.829  0.00  0.00     0.052 SA
ENDROOT
BRANCH   2   6
ATOM      6  N   UNL d   1      33.241  21.813 -21.121  0.00  0.00    -0.018 NA
ATOM      7  C   UNL d   1      32.671  21.330 -21.456  0.00  0.00     0.302 C 
ATOM      8  O   UNL d   1      31.900  21.357 -21.175  0.00  0.00    -0.264 OA
BRANCH   7   9
ATOM      9  C   UNL d   1      32.868  20.818 -22.072  0.00  0.00     0.100 C 
BRANCH   9  10
ATOM     10  S   UNL d   1      33.086  20.038 -21.903  0.00  0.00    -0.054 SA
BRANCH  10  11
ATOM     11  C   UNL d   1      33.089  19.468 -22.501  0.00  0.00     0.164 A 
ATOM     12  S   UNL d   1      33.184  18.662 -22.395  0.00  0.00    -0.039 SA
ATOM     13  C   UNL d   1      33.151  18.303 -23.142  0.00  0.00     0.134 A 
ATOM     14  C   UNL d   1      33.222  17.491 -23.296  0.00  0.00     0.030 C 
ATOM     15  N   UNL d   1      33.035  18.895 -23.706  0.00  0.00    -0.140 NA
ATOM     16  N   UNL d   1      32.997  19.619 -23.311  0.00  0.00    -0.134 NA
ENDBRANCH  10  11
ENDBRANCH   9  10
ENDBRANCH   7   9
ENDBRANCH   2   6
BRANCH   3  17
ATOM     17  C   UNL d   1      32.833  22.958 -18.466  0.00  0.00     0.026 A 
ATOM     18  C   UNL d   1      33.240  22.452 -17.961  0.00  0.00     0.002 A 
ATOM     19  C   UNL d   1      33.210  22.575 -17.142  0.00  0.00     0.000 A 
ATOM     20  C   UNL d   1      32.778  23.196 -16.829  0.00  0.00     0.000 A 
ATOM     21  C   UNL d   1      32.371  23.702 -17.334  0.00  0.00     0.000 A 
ATOM     22  C   UNL d   1      32.397  23.584 -18.160  0.00  0.00     0.002 A 
ENDBRANCH   3  17
TORSDOF 5
ENDMDL
MODEL 2
REMARK VINA RESULT:      -3.3      1.749      2.641
REMARK  5 active torsions:
REMARK  status: ('A' for Active; 'I' for Inactive)
REMARK    1  A    between atoms: N_10  and  C_2 
REMARK    2  A    between atoms: C_14  and  C_3 
REMARK    3  A    between atoms: C_5  and  S_13 
REMARK       I    between atoms: C_12  and  N_10 
REMARK    4  A    between atoms: C_16  and  C_12 
REMARK    5  A    between atoms: S_13  and  C_16 
ROOT
ATOM      1  N   UNL d   1      32.889  20.920 -21.211  0.00  0.00    -0.051 NA
ATOM      2  C   UNL d   1      33.065  20.491 -21.891  0.00  0.00     0.760 A 
ATOM      3  C   UNL d   1      32.958  21.714 -21.393  0.00  0.00     0.147 A 
ATOM      4  N   UNL d   1      33.241  21.016 -22.486  0.00  0.00    -0.019 NA
ATOM      5  S   UNL d   1      33.175  21.775 -22.178  0.00  0.00     0.052 SA
ENDROOT
BRANCH   2   6
ATOM      6  N   UNL d   1      33.064  19.656 -21.961  0.00  0.00    -0.018 NA
ATOM      7  C   UNL d   1      32.894  19.302 -22.680  0.00  0.00     0.302 C 
ATOM      8  O   UNL d   1      32.724  19.770 -23.332  0.00  0.00    -0.264 OA
BRANCH   7   9
ATOM      9  C   UNL d   1      32.893  18.480 -22.750  0.00  0.00     0.100 C 
BRANCH   9  10
ATOM     10  S   UNL d   1      32.623  18.129 -23.449  0.00  0.00    -0.054 SA
BRANCH  10  11
ATOM     11  C   UNL d   1      32.574  17.307 -23.509  0.00  0.00     0.164 A 
ATOM     12  S   UNL d   1      31.961  16.887 -23.853  0.00  0.00    -0.039 SA
ATOM     13  C   UNL d   1      32.140  16.079 -23.790  0.00  0.00     0.134 A 
ATOM     14  C   UNL d   1      31.672  15.453 -24.065  0.00  0.00     0.030 C 
ATOM     15  N   UNL d   1      32.868  16.008 -23.405  0.00  0.00    -0.140 NA
ATOM     16  N   UNL d   1      33.139  16.768 -23.230  0.00  0.00    -0.134 NA
ENDBRANCH  10  11
ENDBRANCH   9  10
ENDBRANCH   7   9
ENDBRANCH   2   6
BRANCH   3  17
ATOM     17  C   UNL d   1      32.839  22.368 -20.902  0.00  0.00     0.026 A 
ATOM     18  C   UNL d   1      33.204  22.399 -20.164  0.00  0.00     0.002 A 
ATOM     19  C   UNL d   1      33.084  23.055 -19.672  0.00  0.00     0.000 A 
ATOM     20  C   UNL d   1      32.605  23.674 -19.912  0.00  0.00     0.000 A 
ATOM     21  C   UNL d   1      32.241  23.643 -20.650  0.00  0.00     0.000 A 
ATOM     22  C   UNL d   1      32.357  22.986 -21.150  0.00  0.00     0.002 A 
ENDBRANCH   3  17
TORSDOF 5
ENDMDL
MODEL 3
REMARK VINA RESULT:      -2.4      3.105      7.084
REMARK  5 active torsions:
REMARK  status: ('A' for Active; 'I' for Inactive)
REMARK    1  A    between atoms: N_10  and  C_2 
REMARK    2  A    between atoms: C_14  and  C_3 
REMARK    3  A    between atoms: C_5  and  S_13 
REMARK       I    between atoms: C_12  and  N_10 
REMARK    4  A    between atoms: C_16  and  C_12 
REMARK    5  A    between atoms: S_13  and  C_16 
ROOT
ATOM      1  N   UNL d   1      30.986  16.602 -23.505  0.00  0.00    -0.051 NA
ATOM      2  C   UNL d   1      31.796  16.592 -23.647  0.00  0.00     0.760 A 
ATOM      3  C   UNL d   1      30.640  16.054 -24.003  0.00  0.00     0.147 A 
ATOM      4  N   UNL d   1      31.947  16.044 -24.228  0.00  0.00    -0.019 NA
ATOM      5  S   UNL d   1      31.230  15.709 -24.449  0.00  0.00     0.052 SA
ENDROOT
BRANCH   2   6
ATOM      6  N   UNL d   1      32.371  17.066 -23.262  0.00  0.00    -0.018 NA
ATOM      7  C   UNL d   1      32.454  17.856 -23.458  0.00  0.00     0.302 C 
ATOM      8  O   UNL d   1      31.970  18.185 -24.034  0.00  0.00    -0.264 OA
BRANCH   7   9
ATOM      9  C   UNL d   1      33.019  18.323 -23.079  0.00  0.00     0.100 C 
BRANCH   9  10
ATOM     10  S   UNL d   1      32.987  19.147 -23.153  0.00  0.00    -0.054 SA
BRANCH  10  11
ATOM     11  C   UNL d   1      33.059  19.627 -22.486  0.00  0.00     0.164 A 
ATOM     12  S   UNL d   1      32.991  20.442 -22.471  0.00  0.00    -0.039 SA
ATOM     13  C   UNL d   1      33.103  20.693 -21.688  0.00  0.00     0.134 A 
ATOM     14  C   UNL d   1      33.081  21.476 -21.419  0.00  0.00     0.030 C 
ATOM     15  N   UNL d   1      33.241  20.024 -21.223  0.00  0.00    -0.140 NA
ATOM     16  N   UNL d   1      33.214  19.362 -21.715  0.00  0.00    -0.134 NA
ENDBRANCH  10  11
ENDBRANCH   9  10
ENDBRANCH   7   9
ENDBRANCH   2   6
BRANCH   3  17
ATOM     17  C   UNL d   1      29.841  15.855 -24.073  0.00  0.00     0.026 A 
ATOM     18  C   UNL d   1      29.503  15.771 -24.820  0.00  0.00     0.002 A 
ATOM     19  C   UNL d   1      28.701  15.571 -24.889  0.00  0.00     0.000 A 
ATOM     20  C   UNL d   1      28.241  15.456 -24.222  0.00  0.00     0.000 A 
ATOM     21  C   UNL d   1      28.579  15.540 -23.476  0.00  0.00     0.000 A 
ATOM     22  C   UNL d   1      29.385  15.741 -23.399  0.00  0.00     0.002 A 
ENDBRANCH   3  17
TORSDOF 5
ENDMDL
MODEL 4
REMARK VINA RESULT:      -1.9      1.275      5.394
REMARK  5 active torsions:
REMARK  status: ('A' for Active; 'I' for Inactive)
REMARK    1  A    between atoms: N_10  and  C_2 
REMARK    2  A    between atoms: C_14  and  C_3 
REMARK    3  A    between atoms: C_5  and  S_13 
REMARK       I    between atoms: C_12  and  N_10 
REMARK    4  A    between atoms: C_16  and  C_12 
REMARK    5  A    between atoms: S_13  and  C_16 
ROOT
ATOM      1  N   UNL d   1      33.125  20.858 -21.109  0.00  0.00    -0.051 NA
ATOM      2  C   UNL d   1      33.066  21.678 -21.110  0.00  0.00     0.760 A 
ATOM      3  C   UNL d   1      33.055  20.602 -21.883  0.00  0.00     0.147 A 
ATOM      4  N   UNL d   1      32.961  21.926 -21.877  0.00  0.00    -0.019 NA
ATOM      5  S   UNL d   1      32.954  21.259 -22.357  0.00  0.00     0.052 SA
ENDROOT
BRANCH   2   6
ATOM      6  N   UNL d   1      33.106  22.177 -20.438  0.00  0.00    -0.018 NA
ATOM      7  C   UNL d   1      32.437  22.566 -20.171  0.00  0.00     0.302 C 
ATOM      8  O   UNL d   1      31.725  22.466 -20.566  0.00  0.00    -0.264 OA
BRANCH   7   9
ATOM      9  C   UNL d   1      32.476  23.058 -19.509  0.00  0.00     0.100 C 
BRANCH   9  10
ATOM     10  S   UNL d   1      33.067  22.936 -18.943  0.00  0.00    -0.054 SA
BRANCH  10  11
ATOM     11  C   UNL d   1      32.921  23.102 -18.148  0.00  0.00     0.164 A 
ATOM     12  S   UNL d   1      33.240  22.704 -17.508  0.00  0.00    -0.039 SA
ATOM     13  C   UNL d   1      32.943  23.055 -16.816  0.00  0.00     0.134 A 
ATOM     14  C   UNL d   1      33.120  22.827 -16.039  0.00  0.00     0.030 C 
ATOM     15  N   UNL d   1      32.440  23.671 -17.039  0.00  0.00    -0.140 NA
ATOM     16  N   UNL d   1      32.424  23.702 -17.863  0.00  0.00    -0.134 NA
ENDBRANCH  10  11
ENDBRANCH   9  10
ENDBRANCH   7   9
ENDBRANCH   2   6
BRANCH   3  17
ATOM     17  C   UNL d   1      33.078  19.829 -22.174  0.00  0.00     0.026 A 
ATOM     18  C   UNL d   1      33.219  19.201 -21.660  0.00  0.00     0.002 A 
ATOM     19  C   UNL d   1      33.241  18.426 -21.953  0.00  0.00     0.000 A 
ATOM     20  C   UNL d   1      33.125  18.278 -22.750  0.00  0.00     0.000 A 
ATOM     21  C   UNL d   1      32.984  18.906 -23.263  0.00  0.00     0.000 A 
ATOM     22  C   UNL d   1      32.960  19.688 -22.975  0.00  0.00     0.002 A 
ENDBRANCH   3  17
TORSDOF 5
ENDMDL
