MODEL 1
REMARK VINA RESULT:      31.2      0.000      0.000
REMARK  4 active torsions:
REMARK  status: ('A' for Active; 'I' for Inactive)
REMARK    1  A    between atoms: C_11  and  C_4 
REMARK    2  A    between atoms: C_9  and  C_5 
REMARK    3  A    between atoms: O_21  and  C_16 
REMARK    4  A    between atoms: O_22  and  C_17 
ROOT
ATOM      1  N   UNL d   1      45.166 -16.240  44.204  0.00  0.00    -0.185 N 
ATOM      2  C   UNL d   1      44.585 -16.789  44.424  0.00  0.00     0.219 A 
ATOM      3  N   UNL d   1      45.724 -16.631  43.748  0.00  0.00    -0.153 NA
ATOM      4  C   UNL d   1      44.962 -15.508  44.527  0.00  0.00     0.187 A 
ATOM      5  C   UNL d   1      45.495 -17.426  43.681  0.00  0.00     0.156 A 
ATOM      6  S   UNL d   1      44.788 -17.521  44.101  0.00  0.00    -0.024 SA
ATOM      7  N   UNL d   1      44.256 -15.607  44.946  0.00  0.00    -0.127 NA
ATOM      8  N   UNL d   1      44.020 -16.393  44.885  0.00  0.00    -0.120 NA
ENDROOT
BRANCH   4   9
ATOM      9  C   UNL d   1      45.384 -14.806  44.449  0.00  0.00     0.040 A 
ATOM     10  C   UNL d   1      45.008 -14.142  44.140  0.00  0.00     0.029 A 
ATOM     11  C   UNL d   1      45.422 -13.441  44.059  0.00  0.00     0.116 A 
ATOM     12  C   UNL d   1      46.217 -13.394  44.287  0.00  0.00     0.116 A 
ATOM     13  C   UNL d   1      46.592 -14.065  44.598  0.00  0.00     0.026 A 
ATOM     14  C   UNL d   1      46.172 -14.768  44.677  0.00  0.00     0.005 A 
BRANCH  11  15
ATOM     15  O   UNL d   1      45.053 -12.768  43.750  0.00  0.00    -0.326 OA
ATOM     16  C   UNL d   1      44.786 -12.755  42.973  0.00  0.00     0.181 C 
ENDBRANCH  11  15
BRANCH  12  17
ATOM     17  O   UNL d   1      46.646 -12.686  44.209  0.00  0.00    -0.326 OA
ATOM     18  C   UNL d   1      46.520 -12.080  44.752  0.00  0.00     0.181 C 
ENDBRANCH  12  17
ENDBRANCH   4   9
BRANCH   5  19
ATOM     19  C   UNL d   1      45.899 -18.015  43.269  0.00  0.00     0.126 A 
ATOM     20  O   UNL d   1      45.942 -18.809  43.474  0.00  0.00    -0.298 OA
ATOM     21  C   UNL d   1      46.402 -19.195  42.908  0.00  0.00     0.134 A 
ATOM     22 BR   UNL d   1      46.586 -20.001  42.903  0.00  0.00    -0.022 Br
ATOM     23  C   UNL d   1      46.645 -18.641  42.351  0.00  0.00     0.034 A 
ATOM     24  C   UNL d   1      46.332 -17.906  42.574  0.00  0.00     0.029 A 
ENDBRANCH   5  19
TORSDOF 4
ENDMDL
