MODEL 1
REMARK VINA RESULT:      -5.3      0.000      0.000
REMARK  5 active torsions:
REMARK  status: ('A' for Active; 'I' for Inactive)
REMARK    1  A    between atoms: N_2  and  S_1 
REMARK    2  A    between atoms: C_4  and  S_1 
REMARK    3  A    between atoms: S_8  and  C_3 
REMARK    4  A    between atoms: C_18  and  S_8 
REMARK    5  A    between atoms: C_17  and  C_18 
ROOT
ATOM      1  N   UNL d   1      58.776   0.293  30.091  0.00  0.00    -0.208 N 
ATOM      2  C   UNL d   1      58.498   0.346  30.873  0.00  0.00     0.189 A 
ATOM      3  N   UNL d   1      59.127   0.587  31.355  0.00  0.00    -0.219 NA
ATOM      4  C   UNL d   1      59.581   0.503  30.092  0.00  0.00     0.114 A 
ATOM      5  C   UNL d   1      59.792   0.682  30.870  0.00  0.00     0.121 A 
ENDROOT
BRANCH   1   6
ATOM      6  S   UNL d   1      58.327   0.071  29.431  0.00  0.00     0.273 S 
ATOM      7  O   UNL d   1      57.737   0.044  28.851  0.00  0.00    -0.200 OA
ATOM      8  O   UNL d   1      57.816   0.681  29.618  0.00  0.00    -0.200 OA
BRANCH   6   9
ATOM      9  C   UNL d   1      58.833  -0.550  29.226  0.00  0.00     0.104 A 
ATOM     10  C   UNL d   1      58.575  -1.325  29.323  0.00  0.00     0.013 A 
ATOM     11  C   UNL d   1      59.083  -1.944  29.117  0.00  0.00     0.001 A 
ATOM     12  C   UNL d   1      58.827  -2.722  29.213  0.00  0.00     0.000 A 
ATOM     13  C   UNL d   1      59.836  -1.787  28.821  0.00  0.00     0.000 A 
ATOM     14  C   UNL d   1      59.325  -3.348  29.011  0.00  0.00     0.000 A 
ATOM     15  C   UNL d   1      60.084  -3.191  28.713  0.00  0.00     0.000 A 
ATOM     16  C   UNL d   1      60.336  -2.415  28.619  0.00  0.00     0.000 A 
ATOM     17  C   UNL d   1      60.092  -1.008  28.726  0.00  0.00     0.001 A 
ATOM     18  C   UNL d   1      59.580  -0.381  28.932  0.00  0.00     0.013 A 
ENDBRANCH   6   9
ENDBRANCH   1   6
BRANCH   2  19
ATOM     19  S   UNL d   1      57.722   0.185  31.124  0.00  0.00    -0.049 SA
BRANCH  19  20
ATOM     20  C   UNL d   1      57.483   0.412  31.882  0.00  0.00     0.040 C 
BRANCH  20  21
ATOM     21  C   UNL d   1      56.837   0.042  32.233  0.00  0.00     0.026 A 
ATOM     22  C   UNL d   1      56.244   0.502  32.610  0.00  0.00     0.099 A 
ATOM     23  N   UNL d   1      55.595   0.149  32.965  0.00  0.00    -0.242 NA
ATOM     24  C   UNL d   1      55.533  -0.673  32.945  0.00  0.00     0.099 A 
ATOM     25  C   UNL d   1      56.110  -1.130  32.577  0.00  0.00     0.021 A 
ATOM     26  C   UNL d   1      56.761  -0.771  32.222  0.00  0.00     0.004 A 
ENDBRANCH  20  21
ENDBRANCH  19  20
ENDBRANCH   2  19
TORSDOF 5
ENDMDL
MODEL 2
REMARK VINA RESULT:      -3.3      1.320      4.293
REMARK  5 active torsions:
REMARK  status: ('A' for Active; 'I' for Inactive)
REMARK    1  A    between atoms: N_2  and  S_1 
REMARK    2  A    between atoms: C_4  and  S_1 
REMARK    3  A    between atoms: S_8  and  C_3 
REMARK    4  A    between atoms: C_18  and  S_8 
REMARK    5  A    between atoms: C_17  and  C_18 
ROOT
ATOM      1  N   UNL d   1      58.257   0.080  30.027  0.00  0.00    -0.208 N 
ATOM      2  C   UNL d   1      58.340  -0.395  29.350  0.00  0.00     0.189 A 
ATOM      3  N   UNL d   1      57.848  -0.090  28.759  0.00  0.00    -0.219 NA
ATOM      4  C   UNL d   1      57.710   0.681  29.851  0.00  0.00     0.114 A 
ATOM      5  C   UNL d   1      57.462   0.573  29.071  0.00  0.00     0.121 A 
ENDROOT
BRANCH   1   6
ATOM      6  S   UNL d   1      58.651  -0.030  30.748  0.00  0.00     0.273 S 
ATOM      7  O   UNL d   1      59.246  -0.137  31.313  0.00  0.00    -0.200 OA
ATOM      8  O   UNL d   1      59.351  -0.033  30.323  0.00  0.00    -0.200 OA
BRANCH   6   9
ATOM      9  C   UNL d   1      57.955  -0.029  31.193  0.00  0.00     0.104 A 
ATOM     10  C   UNL d   1      57.667  -0.741  31.488  0.00  0.00     0.013 A 
ATOM     11  C   UNL d   1      56.970  -0.737  31.933  0.00  0.00     0.001 A 
ATOM     12  C   UNL d   1      56.679  -1.450  32.230  0.00  0.00     0.000 A 
ATOM     13  C   UNL d   1      56.571  -0.031  32.077  0.00  0.00     0.000 A 
ATOM     14  C   UNL d   1      55.985  -1.458  32.675  0.00  0.00     0.000 A 
ATOM     15  C   UNL d   1      55.581  -0.748  32.822  0.00  0.00     0.000 A 
ATOM     16  C   UNL d   1      55.873  -0.040  32.525  0.00  0.00     0.000 A 
ATOM     17  C   UNL d   1      56.861   0.681  31.780  0.00  0.00     0.001 A 
ATOM     18  C   UNL d   1      57.565   0.679  31.331  0.00  0.00     0.013 A 
ENDBRANCH   6   9
ENDBRANCH   1   6
BRANCH   2  19
ATOM     19  S   UNL d   1      58.833  -1.061  29.281  0.00  0.00    -0.049 SA
BRANCH  19  20
ATOM     20  C   UNL d   1      58.783  -1.540  28.610  0.00  0.00     0.040 C 
BRANCH  20  21
ATOM     21  C   UNL d   1      59.088  -2.304  28.629  0.00  0.00     0.026 A 
ATOM     22  C   UNL d   1      59.915  -2.422  28.711  0.00  0.00     0.099 A 
ATOM     23  N   UNL d   1      60.235  -3.178  28.732  0.00  0.00    -0.242 NA
ATOM     24  C   UNL d   1      59.726  -3.823  28.671  0.00  0.00     0.099 A 
ATOM     25  C   UNL d   1      58.914  -3.713  28.591  0.00  0.00     0.021 A 
ATOM     26  C   UNL d   1      58.597  -2.953  28.570  0.00  0.00     0.004 A 
ENDBRANCH  20  21
ENDBRANCH  19  20
ENDBRANCH   2  19
TORSDOF 5
ENDMDL
