MODEL 1
REMARK VINA RESULT:     121.6      0.000      0.000
REMARK  6 active torsions:
REMARK  status: ('A' for Active; 'I' for Inactive)
REMARK    1  A    between atoms: C_11  and  N_3 
REMARK    2  A    between atoms: C_10  and  C_4 
REMARK    3  A    between atoms: C_18  and  C_11 
REMARK    4  A    between atoms: O_21  and  C_13 
REMARK    5  A    between atoms: O_22  and  C_15 
REMARK    6  A    between atoms: C_23  and  C_18 
ROOT
ATOM      1  N   UNL d   1      60.589  47.235  50.784  0.00  0.00    -0.122 N 
ATOM      2  C   UNL d   1      60.022  47.732  51.126  0.00  0.00     0.741 A 
ATOM      3  N   UNL d   1      60.107  48.562  51.071  0.00  0.00    -0.103 N 
ATOM      4  C   UNL d   1      60.365  46.449  50.923  0.00  0.00     0.185 A 
ATOM      5  C   UNL d   1      60.758  48.886  50.675  0.00  0.00     0.280 A 
ATOM      6  N   UNL d   1      59.445  47.260  51.477  0.00  0.00     0.045 NA
ATOM      7  C   UNL d   1      61.242  47.558  50.387  0.00  0.00     0.087 A 
ATOM      8  N   UNL d   1      59.655  46.461  51.353  0.00  0.00    -0.114 NA
ATOM      9  C   UNL d   1      61.319  48.378  50.337  0.00  0.00     0.074 A 
ATOM     10  O   UNL d   1      60.842  49.705  50.621  0.00  0.00    -0.266 OA
ATOM     11  C   UNL d   1      61.974  48.699  49.940  0.00  0.00     0.006 A 
ATOM     12  C   UNL d   1      61.806  47.062  50.048  0.00  0.00     0.018 A 
ATOM     13  C   UNL d   1      62.537  48.204  49.601  0.00  0.00     0.000 A 
ATOM     14  C   UNL d   1      62.453  47.385  49.655  0.00  0.00     0.002 A 
ENDROOT
BRANCH   4  15
ATOM     15  C   UNL d   1      60.773  45.774  50.679  0.00  0.00     0.039 A 
ATOM     16  C   UNL d   1      61.013  45.222  51.227  0.00  0.00     0.029 A 
ATOM     17  C   UNL d   1      61.419  44.548  50.986  0.00  0.00     0.116 A 
ATOM     18  C   UNL d   1      61.585  44.432  50.179  0.00  0.00     0.116 A 
ATOM     19  C   UNL d   1      61.340  44.994  49.626  0.00  0.00     0.026 A 
ATOM     20  C   UNL d   1      60.932  45.670  49.871  0.00  0.00     0.005 A 
BRANCH  17  21
ATOM     21  O   UNL d   1      61.658  43.998  51.538  0.00  0.00    -0.326 OA
ATOM     22  C   UNL d   1      61.298  43.253  51.570  0.00  0.00     0.181 C 
ENDBRANCH  17  21
BRANCH  18  23
ATOM     23  O   UNL d   1      61.992  43.758  49.940  0.00  0.00    -0.326 OA
ATOM     24  C   UNL d   1      62.066  43.591  49.132  0.00  0.00     0.181 C 
ENDBRANCH  18  23
ENDBRANCH   4  15
BRANCH   3  25
ATOM     25  C   UNL d   1      59.544  49.059  51.410  0.00  0.00     0.101 C 
BRANCH  25  26
ATOM     26  C   UNL d   1      59.203  49.660  50.959  0.00  0.00     0.020 C 
BRANCH  26  27
ATOM     27  C   UNL d   1      58.383  49.675  50.829  0.00  0.00     0.002 A 
ATOM     28  C   UNL d   1      58.089  49.685  50.058  0.00  0.00     0.000 A 
ATOM     29  C   UNL d   1      57.287  49.700  49.935  0.00  0.00     0.000 A 
ATOM     30  C   UNL d   1      56.781  49.705  50.567  0.00  0.00     0.000 A 
ATOM     31  C   UNL d   1      57.065  49.695  51.338  0.00  0.00     0.000 A 
ATOM     32  C   UNL d   1      57.878  49.680  51.461  0.00  0.00     0.000 A 
ENDBRANCH  26  27
ENDBRANCH  25  26
ENDBRANCH   3  25
TORSDOF 6
ENDMDL
