MODEL 1
REMARK VINA RESULT:      62.3      0.000      0.000
REMARK  7 active torsions:
REMARK  status: ('A' for Active; 'I' for Inactive)
REMARK    1  A    between atoms: C_23  and  C_3 
REMARK    2  A    between atoms: S_18  and  C_5 
REMARK    3  A    between atoms: C_11  and  C_16 
REMARK       I    between atoms: N_14  and  C_11 
REMARK    4  A    between atoms: C_17  and  N_14 
REMARK    5  A    between atoms: C_16  and  C_21 
REMARK    6  A    between atoms: C_21  and  S_18 
REMARK    7  A    between atoms: O_24  and  C_22 
ROOT
ATOM      1  C   UNL d   1      14.879  15.418  -1.520  0.00  0.00     0.092 A 
ATOM      2  C   UNL d   1      14.658  14.016  -1.394  0.00  0.00     0.057 A 
ATOM      3  C   UNL d   1      14.878  14.735  -1.059  0.00  0.00     0.016 A 
ATOM      4  N   UNL d   1      14.442  14.662  -2.649  0.00  0.00    -0.239 NA
ATOM      5  C   UNL d   1      14.661  15.381  -2.314  0.00  0.00     0.120 A 
ATOM      6  C   UNL d   1      14.440  13.979  -2.189  0.00  0.00     0.081 A 
ATOM      7  C   UNL d   1      14.657  13.333  -0.934  0.00  0.00     0.193 A 
ATOM      8  C   UNL d   1      15.102  16.150  -1.182  0.00  0.00     0.103 C 
ATOM      9  N   UNL d   1      15.325  16.874  -0.835  0.00  0.00    -0.191 NA
ATOM     10  C   UNL d   1      14.218  12.569  -2.063  0.00  0.00     0.042 A 
ATOM     11  C   UNL d   1      14.436  12.605  -1.269  0.00  0.00     0.019 A 
ATOM     12  C   UNL d   1      14.221  13.260  -2.524  0.00  0.00    -0.003 A 
ATOM     13  O   UNL d   1      14.874  13.370  -0.140  0.00  0.00    -0.287 OA
ATOM     14  C   UNL d   1      13.968  12.260  -2.793  0.00  0.00     0.009 C 
ATOM     15  C   UNL d   1      14.213  11.881  -1.611  0.00  0.00     0.009 C 
ENDROOT
BRANCH   3  16
ATOM     16  C   UNL d   1      15.095  14.772  -0.265  0.00  0.00     0.001 C 
ATOM     17  C   UNL d   1      15.802  14.431  -0.015  0.00  0.00     0.000 C 
ENDBRANCH   3  16
BRANCH   5  18
ATOM     18  S   UNL d   1      14.665  16.076  -2.775  0.00  0.00    -0.067 SA
BRANCH  18  19
ATOM     19  C   UNL d   1      14.868  16.042  -3.574  0.00  0.00     0.042 C 
BRANCH  19  20
ATOM     20  C   UNL d   1      15.328  16.643  -3.907  0.00  0.00     0.070 C 
BRANCH  20  21
ATOM     21  C   UNL d   1      15.033  17.074  -4.562  0.00  0.00     0.280 C 
ATOM     22  N   UNL d   1      14.701  17.818  -4.440  0.00  0.00    -0.208 NA
ATOM     23  O   UNL d   1      15.079  16.749  -5.319  0.00  0.00    -0.265 OA
BRANCH  22  24
ATOM     24  C   UNL d   1      14.405  18.252  -5.096  0.00  0.00     0.087 A 
ATOM     25  C   UNL d   1      14.577  19.056  -5.161  0.00  0.00     0.043 A 
ATOM     26  C   UNL d   1      14.285  19.478  -5.806  0.00  0.00     0.096 A 
ATOM     27  C   UNL d   1      13.822  19.108  -6.389  0.00  0.00     0.024 A 
ATOM     28  C   UNL d   1      13.652  18.303  -6.319  0.00  0.00     0.004 A 
ATOM     29  C   UNL d   1      13.942  17.869  -5.674  0.00  0.00     0.019 A 
BRANCH  26  30
ATOM     30  O   UNL d   1      14.457  20.282  -5.871  0.00  0.00    -0.328 OA
ATOM     31  C   UNL d   1      15.227  20.551  -5.730  0.00  0.00     0.181 C 
ENDBRANCH  26  30
ENDBRANCH  22  24
ENDBRANCH  20  21
ENDBRANCH  19  20
ENDBRANCH  18  19
ENDBRANCH   5  18
TORSDOF 7
ENDMDL
MODEL 2
REMARK VINA RESULT:      63.6      1.163      1.663
REMARK  7 active torsions:
REMARK  status: ('A' for Active; 'I' for Inactive)
REMARK    1  A    between atoms: C_23  and  C_3 
REMARK    2  A    between atoms: S_18  and  C_5 
REMARK    3  A    between atoms: C_11  and  C_16 
REMARK       I    between atoms: N_14  and  C_11 
REMARK    4  A    between atoms: C_17  and  N_14 
REMARK    5  A    between atoms: C_16  and  C_21 
REMARK    6  A    between atoms: C_21  and  S_18 
REMARK    7  A    between atoms: O_24  and  C_22 
ROOT
ATOM      1  C   UNL d   1      14.558  14.142  -2.019  0.00  0.00     0.092 A 
ATOM      2  C   UNL d   1      13.905  13.094  -2.731  0.00  0.00     0.057 A 
ATOM      3  C   UNL d   1      14.317  13.356  -2.068  0.00  0.00     0.016 A 
ATOM      4  N   UNL d   1      13.974  14.404  -3.296  0.00  0.00    -0.239 NA
ATOM      5  C   UNL d   1      14.386  14.666  -2.633  0.00  0.00     0.120 A 
ATOM      6  C   UNL d   1      13.734  13.618  -3.345  0.00  0.00     0.081 A 
ATOM      7  C   UNL d   1      13.665  12.308  -2.780  0.00  0.00     0.193 A 
ATOM      8  C   UNL d   1      14.976  14.410  -1.347  0.00  0.00     0.103 C 
ATOM      9  N   UNL d   1      15.393  14.668  -0.672  0.00  0.00    -0.191 NA
ATOM     10  C   UNL d   1      13.077  12.564  -4.061  0.00  0.00     0.042 A 
ATOM     11  C   UNL d   1      13.249  12.040  -3.447  0.00  0.00     0.019 A 
ATOM     12  C   UNL d   1      13.322  13.356  -4.007  0.00  0.00    -0.003 A 
ATOM     13  O   UNL d   1      13.836  11.785  -2.166  0.00  0.00    -0.287 OA
ATOM     14  C   UNL d   1      12.787  12.856  -4.783  0.00  0.00     0.009 C 
ATOM     15  C   UNL d   1      12.833  11.780  -4.118  0.00  0.00     0.009 C 
ENDROOT
BRANCH   3  16
ATOM     16  C   UNL d   1      14.489  12.833  -1.455  0.00  0.00     0.001 C 
ATOM     17  C   UNL d   1      13.895  12.599  -0.933  0.00  0.00     0.000 C 
ENDBRANCH   3  16
BRANCH   5  18
ATOM     18  S   UNL d   1      14.632  15.460  -2.578  0.00  0.00    -0.067 SA
BRANCH  18  19
ATOM     19  C   UNL d   1      14.447  15.995  -3.179  0.00  0.00     0.042 C 
BRANCH  19  20
ATOM     20  C   UNL d   1      14.922  16.660  -3.298  0.00  0.00     0.070 C 
BRANCH  20  21
ATOM     21  C   UNL d   1      14.703  17.226  -3.874  0.00  0.00     0.280 C 
ATOM     22  N   UNL d   1      14.642  16.998  -4.663  0.00  0.00    -0.208 NA
ATOM     23  O   UNL d   1      14.551  18.004  -3.645  0.00  0.00    -0.265 OA
BRANCH  22  24
ATOM     24  C   UNL d   1      14.422  17.565  -5.243  0.00  0.00     0.087 A 
ATOM     25  C   UNL d   1      14.799  18.299  -5.257  0.00  0.00     0.043 A 
ATOM     26  C   UNL d   1      14.580  18.852  -5.827  0.00  0.00     0.096 A 
ATOM     27  C   UNL d   1      13.988  18.684  -6.385  0.00  0.00     0.024 A 
ATOM     28  C   UNL d   1      13.613  17.949  -6.367  0.00  0.00     0.004 A 
ATOM     29  C   UNL d   1      13.826  17.385  -5.798  0.00  0.00     0.019 A 
BRANCH  26  30
ATOM     30  O   UNL d   1      14.958  19.586  -5.841  0.00  0.00    -0.328 OA
ATOM     31  C   UNL d   1      14.547  20.264  -5.603  0.00  0.00     0.181 C 
ENDBRANCH  26  30
ENDBRANCH  22  24
ENDBRANCH  20  21
ENDBRANCH  19  20
ENDBRANCH  18  19
ENDBRANCH   5  18
TORSDOF 7
ENDMDL
MODEL 3
REMARK VINA RESULT:      65.2      1.176      2.356
REMARK  7 active torsions:
REMARK  status: ('A' for Active; 'I' for Inactive)
REMARK    1  A    between atoms: C_23  and  C_3 
REMARK    2  A    between atoms: S_18  and  C_5 
REMARK    3  A    between atoms: C_11  and  C_16 
REMARK       I    between atoms: N_14  and  C_11 
REMARK    4  A    between atoms: C_17  and  N_14 
REMARK    5  A    between atoms: C_16  and  C_21 
REMARK    6  A    between atoms: C_21  and  S_18 
REMARK    7  A    between atoms: O_24  and  C_22 
ROOT
ATOM      1  C   UNL d   1      13.741  13.296  -3.327  0.00  0.00     0.092 A 
ATOM      2  C   UNL d   1      14.236  13.069  -2.011  0.00  0.00     0.057 A 
ATOM      3  C   UNL d   1      13.837  12.798  -2.679  0.00  0.00     0.016 A 
ATOM      4  N   UNL d   1      14.442  14.333  -2.641  0.00  0.00    -0.239 NA
ATOM      5  C   UNL d   1      14.043  14.064  -3.308  0.00  0.00     0.120 A 
ATOM      6  C   UNL d   1      14.538  13.836  -1.992  0.00  0.00     0.081 A 
ATOM      7  C   UNL d   1      14.332  12.571  -1.362  0.00  0.00     0.193 A 
ATOM      8  C   UNL d   1      13.336  13.024  -4.007  0.00  0.00     0.103 C 
ATOM      9  N   UNL d   1      12.931  12.744  -4.679  0.00  0.00    -0.191 NA
ATOM     10  C   UNL d   1      15.036  13.607  -0.667  0.00  0.00     0.042 A 
ATOM     11  C   UNL d   1      14.734  12.840  -0.686  0.00  0.00     0.019 A 
ATOM     12  C   UNL d   1      14.937  14.105  -1.324  0.00  0.00    -0.003 A 
ATOM     13  O   UNL d   1      14.029  11.804  -1.381  0.00  0.00    -0.287 OA
ATOM     14  C   UNL d   1      15.420  14.291  -0.392  0.00  0.00     0.009 C 
ATOM     15  C   UNL d   1      15.137  13.117  -0.014  0.00  0.00     0.009 C 
ENDROOT
BRANCH   3  16
ATOM     16  C   UNL d   1      13.535  12.032  -2.698  0.00  0.00     0.001 C 
ATOM     17  C   UNL d   1      13.010  11.780  -2.114  0.00  0.00     0.000 C 
ENDBRANCH   3  16
BRANCH   5  18
ATOM     18  S   UNL d   1      13.943  14.563  -3.969  0.00  0.00    -0.067 SA
BRANCH  18  19
ATOM     19  C   UNL d   1      14.390  15.253  -4.038  0.00  0.00     0.042 C 
BRANCH  19  20
ATOM     20  C   UNL d   1      14.798  15.409  -4.739  0.00  0.00     0.070 C 
BRANCH  20  21
ATOM     21  C   UNL d   1      14.922  16.202  -4.977  0.00  0.00     0.280 C 
ATOM     22  N   UNL d   1      14.418  16.791  -4.700  0.00  0.00    -0.208 NA
ATOM     23  O   UNL d   1      15.547  16.383  -5.485  0.00  0.00    -0.265 OA
BRANCH  22  24
ATOM     24  C   UNL d   1      14.541  17.588  -4.937  0.00  0.00     0.087 A 
ATOM     25  C   UNL d   1      13.943  17.988  -5.342  0.00  0.00     0.043 A 
ATOM     26  C   UNL d   1      14.068  18.769  -5.573  0.00  0.00     0.096 A 
ATOM     27  C   UNL d   1      14.784  19.158  -5.406  0.00  0.00     0.024 A 
ATOM     28  C   UNL d   1      15.378  18.754  -5.001  0.00  0.00     0.004 A 
ATOM     29  C   UNL d   1      15.263  17.968  -4.764  0.00  0.00     0.019 A 
BRANCH  26  30
ATOM     30  O   UNL d   1      13.470  19.169  -5.977  0.00  0.00    -0.328 OA
ATOM     31  C   UNL d   1      13.647  19.866  -6.388  0.00  0.00     0.181 C 
ENDBRANCH  26  30
ENDBRANCH  22  24
ENDBRANCH  20  21
ENDBRANCH  19  20
ENDBRANCH  18  19
ENDBRANCH   5  18
TORSDOF 7
ENDMDL
