MODEL 1
REMARK VINA RESULT:      40.3      0.000      0.000
REMARK  2 active torsions:
REMARK  status: ('A' for Active; 'I' for Inactive)
REMARK    1  A    between atoms: N_7  and  C_3 
REMARK       I    between atoms: C_8  and  N_7 
REMARK    2  A    between atoms: C_9  and  C_8 
ROOT
ATOM      1  N   UNL d   1      14.090  13.322  -2.845  0.00  0.00    -0.190 NA
ATOM      2  C   UNL d   1      14.230  12.575  -3.163  0.00  0.00     0.281 C 
ATOM      3  O   UNL d   1      14.734  12.048  -2.775  0.00  0.00    -0.265 OA
ENDROOT
BRANCH   1   4
ATOM      4  C   UNL d   1      14.455  13.545  -2.136  0.00  0.00     0.159 A 
ATOM      5  N   UNL d   1      14.610  14.337  -1.982  0.00  0.00    -0.241 N 
ATOM      6  C   UNL d   1      14.971  14.557  -1.281  0.00  0.00     0.343 A 
ATOM      7  C   UNL d   1      14.402  14.912  -2.537  0.00  0.00     0.105 C 
ATOM      8  N   UNL d   1      15.179  13.982  -0.727  0.00  0.00    -0.224 N 
ATOM      9  O   UNL d   1      15.127  15.355  -1.127  0.00  0.00    -0.245 OA
ATOM     10  C   UNL d   1      15.029  13.181  -0.867  0.00  0.00     0.271 A 
ATOM     11  C   UNL d   1      15.543  14.205  -0.018  0.00  0.00     0.107 C 
ATOM     12  C   UNL d   1      14.663  12.970  -1.582  0.00  0.00     0.099 A 
ATOM     13  O   UNL d   1      15.235  12.612  -0.318  0.00  0.00    -0.266 OA
ENDBRANCH   1   4
BRANCH   2  14
ATOM     14  C   UNL d   1      13.867  12.354  -3.869  0.00  0.00     0.069 A 
ATOM     15  C   UNL d   1      13.146  12.004  -3.844  0.00  0.00     0.062 A 
ATOM     16  C   UNL d   1      12.771  11.779  -4.537  0.00  0.00     0.012 A 
ATOM     17 CL   UNL d   1      12.772  11.867  -3.113  0.00  0.00    -0.082 Cl
ATOM     18  C   UNL d   1      13.139  11.913  -5.263  0.00  0.00     0.008 A 
ATOM     19  C   UNL d   1      13.870  12.269  -5.280  0.00  0.00     0.035 A 
ATOM     20  C   UNL d   1      14.249  12.496  -4.586  0.00  0.00     0.012 A 
ATOM     21 BR   UNL d   1      14.238  12.403  -6.023  0.00  0.00    -0.049 Br
ENDBRANCH   2  14
TORSDOF 2
ENDMDL
MODEL 2
REMARK VINA RESULT:      43.0      2.839      3.757
REMARK  2 active torsions:
REMARK  status: ('A' for Active; 'I' for Inactive)
REMARK    1  A    between atoms: N_7  and  C_3 
REMARK       I    between atoms: C_8  and  N_7 
REMARK    2  A    between atoms: C_9  and  C_8 
ROOT
ATOM      1  N   UNL d   1      14.614  14.457  -1.264  0.00  0.00    -0.190 NA
ATOM      2  C   UNL d   1      14.978  14.113  -0.610  0.00  0.00     0.281 C 
ATOM      3  O   UNL d   1      15.509  14.551  -0.155  0.00  0.00    -0.265 OA
ENDROOT
BRANCH   1   4
ATOM      4  C   UNL d   1      14.781  15.242  -1.466  0.00  0.00     0.159 A 
ATOM      5  N   UNL d   1      14.645  15.511  -2.230  0.00  0.00    -0.241 N 
ATOM      6  C   UNL d   1      14.810  16.288  -2.429  0.00  0.00     0.343 A 
ATOM      7  C   UNL d   1      14.340  14.996  -2.799  0.00  0.00     0.105 C 
ATOM      8  N   UNL d   1      15.114  16.803  -1.860  0.00  0.00    -0.224 N 
ATOM      9  O   UNL d   1      14.672  16.557  -3.199  0.00  0.00    -0.245 OA
ATOM     10  C   UNL d   1      15.257  16.547  -1.087  0.00  0.00     0.271 A 
ATOM     11  C   UNL d   1      15.281  17.588  -2.061  0.00  0.00     0.107 C 
ATOM     12  C   UNL d   1      15.085  15.757  -0.897  0.00  0.00     0.099 A 
ATOM     13  O   UNL d   1      15.558  17.057  -0.524  0.00  0.00    -0.266 OA
ENDBRANCH   1   4
BRANCH   2  14
ATOM     14  C   UNL d   1      14.810  13.331  -0.411  0.00  0.00     0.069 A 
ATOM     15  C   UNL d   1      15.413  12.841  -0.215  0.00  0.00     0.062 A 
ATOM     16  C   UNL d   1      15.263  12.060  -0.014  0.00  0.00     0.012 A 
ATOM     17 CL   UNL d   1      16.198  13.121  -0.213  0.00  0.00    -0.082 Cl
ATOM     18  C   UNL d   1      14.488  11.779  -0.015  0.00  0.00     0.008 A 
ATOM     19  C   UNL d   1      13.883  12.283  -0.215  0.00  0.00     0.035 A 
ATOM     20  C   UNL d   1      14.029  13.067  -0.417  0.00  0.00     0.012 A 
ATOM     21 BR   UNL d   1      13.095  11.990  -0.214  0.00  0.00    -0.049 Br
ENDBRANCH   2  14
TORSDOF 2
ENDMDL
