MODEL 1
REMARK VINA RESULT:      -1.9      0.000      0.000
REMARK  3 active torsions:
REMARK  status: ('A' for Active; 'I' for Inactive)
REMARK    1  A    between atoms: C_7  and  N_1 
REMARK    2  A    between atoms: N_3  and  C_8 
REMARK    3  A    between atoms: C_11  and  C_4 
ROOT
ATOM      1  N   UNL d   1      58.425  -0.611  29.919  0.00  0.00    -0.230 N 
ATOM      2  N   UNL d   1      57.727  -0.449  30.312  0.00  0.00    -0.165 NA
ATOM      3  C   UNL d   1      58.877   0.092  29.890  0.00  0.00     0.084 A 
ATOM      4  C   UNL d   1      57.733   0.344  30.531  0.00  0.00     0.103 A 
ATOM      5  C   UNL d   1      58.436   0.678  30.274  0.00  0.00     0.040 A 
ATOM      6  C   UNL d   1      57.073   0.668  30.950  0.00  0.00     0.022 C 
ENDROOT
BRANCH   1   7
ATOM      7  C   UNL d   1      58.635  -1.339  29.610  0.00  0.00     0.083 A 
ATOM      8  C   UNL d   1      59.025  -1.885  30.082  0.00  0.00     0.021 A 
ATOM      9  C   UNL d   1      59.237  -2.620  29.772  0.00  0.00     0.025 A 
ATOM     10  C   UNL d   1      59.062  -2.814  28.991  0.00  0.00     0.127 A 
ATOM     11  C   UNL d   1      58.670  -2.265  28.517  0.00  0.00     0.025 A 
ATOM     12  C   UNL d   1      58.458  -1.528  28.831  0.00  0.00     0.021 A 
BRANCH  10  13
ATOM     13  N   UNL d   1      59.280  -3.562  28.681  0.00  0.00    -0.114 N 
ATOM     14  O   UNL d   1      58.744  -4.213  28.549  0.00  0.00    -0.532 OA
ATOM     15  O   UNL d   1      60.059  -3.776  28.458  0.00  0.00    -0.532 OA
ENDBRANCH  10  13
ENDBRANCH   1   7
BRANCH   3  16
ATOM     16  C   UNL d   1      59.624   0.227  29.556  0.00  0.00     0.018 A 
ATOM     17  C   UNL d   1      60.297   0.147  30.044  0.00  0.00     0.002 A 
ATOM     18  C   UNL d   1      61.058   0.279  29.725  0.00  0.00     0.000 A 
ATOM     19  C   UNL d   1      61.133   0.487  28.932  0.00  0.00     0.000 A 
ATOM     20  C   UNL d   1      60.469   0.565  28.457  0.00  0.00     0.000 A 
ATOM     21  C   UNL d   1      59.712   0.438  28.753  0.00  0.00     0.002 A 
ENDBRANCH   3  16
TORSDOF 3
ENDMDL
MODEL 2
REMARK VINA RESULT:      -1.2      2.053      3.535
REMARK  3 active torsions:
REMARK  status: ('A' for Active; 'I' for Inactive)
REMARK    1  A    between atoms: C_7  and  N_1 
REMARK    2  A    between atoms: N_3  and  C_8 
REMARK    3  A    between atoms: C_11  and  C_4 
ROOT
ATOM      1  N   UNL d   1      59.464  -0.186  29.458  0.00  0.00    -0.230 N 
ATOM      2  N   UNL d   1      59.971   0.430  29.279  0.00  0.00    -0.165 NA
ATOM      3  C   UNL d   1      59.709  -0.859  29.027  0.00  0.00     0.084 A 
ATOM      4  C   UNL d   1      60.532   0.155  28.742  0.00  0.00     0.103 A 
ATOM      5  C   UNL d   1      60.374  -0.634  28.587  0.00  0.00     0.040 A 
ATOM      6  C   UNL d   1      61.132   0.678  28.458  0.00  0.00     0.022 C 
ENDROOT
BRANCH   1   7
ATOM      7  C   UNL d   1      58.829  -0.140  29.971  0.00  0.00     0.083 A 
ATOM      8  C   UNL d   1      58.094   0.096  29.691  0.00  0.00     0.021 A 
ATOM      9  C   UNL d   1      57.453   0.142  30.208  0.00  0.00     0.025 A 
ATOM     10  C   UNL d   1      57.540  -0.045  31.006  0.00  0.00     0.127 A 
ATOM     11  C   UNL d   1      58.278  -0.282  31.287  0.00  0.00     0.025 A 
ATOM     12  C   UNL d   1      58.921  -0.328  30.765  0.00  0.00     0.021 A 
BRANCH  10  13
ATOM     13  N   UNL d   1      56.885   0.004  31.527  0.00  0.00    -0.114 N 
ATOM     14  O   UNL d   1      56.311  -0.616  31.653  0.00  0.00    -0.532 OA
ATOM     15  O   UNL d   1      56.700   0.672  31.998  0.00  0.00    -0.532 OA
ENDBRANCH  10  13
ENDBRANCH   1   7
BRANCH   3  16
ATOM     16  C   UNL d   1      59.386  -1.622  29.010  0.00  0.00     0.018 A 
ATOM     17  C   UNL d   1      59.732  -2.210  29.492  0.00  0.00     0.002 A 
ATOM     18  C   UNL d   1      59.420  -2.985  29.487  0.00  0.00     0.000 A 
ATOM     19  C   UNL d   1      58.774  -3.159  29.007  0.00  0.00     0.000 A 
ATOM     20  C   UNL d   1      58.438  -2.578  28.535  0.00  0.00     0.000 A 
ATOM     21  C   UNL d   1      58.732  -1.809  28.526  0.00  0.00     0.002 A 
ENDBRANCH   3  16
TORSDOF 3
ENDMDL
MODEL 3
REMARK VINA RESULT:      -0.2      2.157      3.230
REMARK  3 active torsions:
REMARK  status: ('A' for Active; 'I' for Inactive)
REMARK    1  A    between atoms: C_7  and  N_1 
REMARK    2  A    between atoms: N_3  and  C_8 
REMARK    3  A    between atoms: C_11  and  C_4 
ROOT
ATOM      1  N   UNL d   1      58.660  -1.588  29.543  0.00  0.00    -0.230 N 
ATOM      2  N   UNL d   1      58.416  -2.330  29.304  0.00  0.00    -0.165 NA
ATOM      3  C   UNL d   1      59.396  -1.425  29.180  0.00  0.00     0.084 A 
ATOM      4  C   UNL d   1      58.987  -2.638  28.796  0.00  0.00     0.103 A 
ATOM      5  C   UNL d   1      59.588  -2.086  28.719  0.00  0.00     0.040 A 
ATOM      6  C   UNL d   1      58.879  -3.407  28.460  0.00  0.00     0.022 C 
ENDROOT
BRANCH   1   7
ATOM      7  C   UNL d   1      58.248  -1.096  30.050  0.00  0.00     0.083 A 
ATOM      8  C   UNL d   1      58.185  -1.290  30.846  0.00  0.00     0.021 A 
ATOM      9  C   UNL d   1      57.769  -0.795  31.358  0.00  0.00     0.025 A 
ATOM     10  C   UNL d   1      57.413  -0.105  31.081  0.00  0.00     0.127 A 
ATOM     11  C   UNL d   1      57.476   0.089  30.283  0.00  0.00     0.025 A 
ATOM     12  C   UNL d   1      57.894  -0.410  29.770  0.00  0.00     0.021 A 
BRANCH  10  13
ATOM     13  N   UNL d   1      56.992   0.394  31.607  0.00  0.00    -0.114 N 
ATOM     14  O   UNL d   1      56.198   0.682  31.480  0.00  0.00    -0.532 OA
ATOM     15  O   UNL d   1      57.293   0.681  32.335  0.00  0.00    -0.532 OA
ENDBRANCH  10  13
ENDBRANCH   1   7
BRANCH   3  16
ATOM     16  C   UNL d   1      59.877  -0.753  29.239  0.00  0.00     0.018 A 
ATOM     17  C   UNL d   1      59.795  -0.155  28.662  0.00  0.00     0.002 A 
ATOM     18  C   UNL d   1      60.271   0.530  28.704  0.00  0.00     0.000 A 
ATOM     19  C   UNL d   1      60.817   0.606  29.315  0.00  0.00     0.000 A 
ATOM     20  C   UNL d   1      60.895   0.016  29.880  0.00  0.00     0.000 A 
ATOM     21  C   UNL d   1      60.434  -0.666  29.855  0.00  0.00     0.002 A 
ENDBRANCH   3  16
TORSDOF 3
ENDMDL
