MODEL 1
REMARK VINA RESULT:      24.6      0.000      0.000
REMARK  5 active torsions:
REMARK  status: ('A' for Active; 'I' for Inactive)
REMARK    1  A    between atoms: S_2  and  C_1 
REMARK    2  A    between atoms: C_8  and  S_2 
REMARK    3  A    between atoms: C_18  and  N_6 
REMARK    4  A    between atoms: O_22  and  C_16 
REMARK    5  A    between atoms: C_23  and  O_22 
ROOT
ATOM      1  C   UNL d   1      46.028 -17.664  43.903  0.00  0.00     0.144 A 
ATOM      2  C   UNL d   1      46.133 -17.887  43.120  0.00  0.00     0.209 A 
ATOM      3  C   UNL d   1      46.285 -18.663  42.913  0.00  0.00     0.058 A 
ATOM      4  C   UNL d   1      46.078 -18.246  44.503  0.00  0.00     0.095 A 
ATOM      5  N   UNL d   1      46.232 -19.034  44.303  0.00  0.00    -0.303 N 
ATOM      6  C   UNL d   1      46.335 -19.245  43.513  0.00  0.00     0.067 A 
ATOM      7  C   UNL d   1      46.487 -20.031  43.316  0.00  0.00     0.020 A 
ATOM      8  C   UNL d   1      46.389 -18.884  42.132  0.00  0.00     0.029 A 
ATOM      9  O   UNL d   1      46.084 -17.314  42.528  0.00  0.00    -0.286 OA
ATOM     10  C   UNL d   1      46.542 -19.666  41.920  0.00  0.00     0.100 A 
ATOM     11  C   UNL d   1      46.592 -20.248  42.521  0.00  0.00     0.026 A 
ENDROOT
BRANCH   1  12
ATOM     12  S   UNL d   1      45.875 -16.882  44.115  0.00  0.00     0.214 S 
ATOM     13  O   UNL d   1      46.645 -16.791  44.394  0.00  0.00    -0.217 OA
ATOM     14  O   UNL d   1      45.094 -16.969  43.835  0.00  0.00    -0.217 OA
BRANCH  12  15
ATOM     15  C   UNL d   1      45.710 -16.099  44.324  0.00  0.00     0.088 A 
ATOM     16  C   UNL d   1      46.238 -15.494  44.130  0.00  0.00     0.011 A 
ATOM     17  C   UNL d   1      46.075 -14.714  44.337  0.00  0.00     0.001 A 
ATOM     18  C   UNL d   1      45.378 -14.529  44.743  0.00  0.00     0.000 A 
ATOM     19  C   UNL d   1      44.848 -15.132  44.939  0.00  0.00     0.001 A 
ATOM     20  C   UNL d   1      45.211 -13.744  44.954  0.00  0.00     0.000 C 
ATOM     21  C   UNL d   1      45.011 -15.912  44.732  0.00  0.00     0.011 A 
ENDBRANCH  12  15
ENDBRANCH   1  12
BRANCH   5  22
ATOM     22  C   UNL d   1      46.282 -19.613  44.888  0.00  0.00     0.080 C 
ATOM     23  C   UNL d   1      45.684 -20.176  44.954  0.00  0.00     0.021 C 
ENDBRANCH   5  22
BRANCH  10  24
ATOM     24  O   UNL d   1      46.646 -19.886  41.140  0.00  0.00    -0.305 OA
BRANCH  24  25
ATOM     25  C   UNL d   1      46.227 -19.526  40.532  0.00  0.00     0.123 C 
ATOM     26  C   UNL d   1      46.354 -19.741  39.747  0.00  0.00     0.029 C 
ENDBRANCH  24  25
ENDBRANCH  10  24
TORSDOF 5
ENDMDL
