MODEL 1
REMARK VINA RESULT:      -4.5      0.000      0.000
REMARK  3 active torsions:
REMARK  status: ('A' for Active; 'I' for Inactive)
REMARK    1  A    between atoms: N_3  and  C_1 
REMARK       I    between atoms: C_5  and  N_3 
REMARK    2  A    between atoms: C_9  and  C_5 
REMARK    3  A    between atoms: O_22  and  C_20 
ROOT
ATOM      1  N   UNL d   1      56.669  -0.012  31.824  0.00  0.00    -0.183 NA
ATOM      2  C   UNL d   1      56.857   0.347  32.543  0.00  0.00     0.281 C 
ATOM      3  O   UNL d   1      57.631   0.661  32.661  0.00  0.00    -0.265 OA
ENDROOT
BRANCH   1   4
ATOM      4  C   UNL d   1      57.227  -0.068  31.220  0.00  0.00     0.197 A 
ATOM      5  N   UNL d   1      57.545  -0.779  30.931  0.00  0.00    -0.221 NA
ATOM      6  C   UNL d   1      58.082  -0.577  30.330  0.00  0.00     0.090 A 
ATOM      7  C   UNL d   1      58.559  -1.045  29.848  0.00  0.00     0.022 A 
ATOM      8  C   UNL d   1      58.086   0.245  30.259  0.00  0.00     0.052 A 
ATOM      9  C   UNL d   1      59.047  -0.674  29.286  0.00  0.00     0.026 A 
ATOM     10  C   UNL d   1      59.051   0.139  29.216  0.00  0.00     0.095 A 
ATOM     11  C   UNL d   1      58.573   0.617  29.698  0.00  0.00     0.032 A 
ATOM     12  S   UNL d   1      57.560   0.545  30.807  0.00  0.00    -0.047 SA
BRANCH  10  13
ATOM     13  O   UNL d   1      59.551   0.528  28.640  0.00  0.00    -0.328 OA
ATOM     14  C   UNL d   1      60.376   0.374  28.647  0.00  0.00     0.181 C 
ENDBRANCH  10  13
ENDBRANCH   1   4
BRANCH   2  15
ATOM     15  C   UNL d   1      56.298   0.402  33.147  0.00  0.00     0.059 A 
ATOM     16  C   UNL d   1      56.549   0.505  33.923  0.00  0.00     0.013 A 
ATOM     17  C   UNL d   1      56.005   0.561  34.532  0.00  0.00     0.049 A 
ATOM     18  S   UNL d   1      56.093   0.664  35.352  0.00  0.00    -0.064 SA
ATOM     19  C   UNL d   1      55.183   0.514  34.363  0.00  0.00     0.088 A 
ATOM     20  C   UNL d   1      55.328   0.678  35.676  0.00  0.00     0.135 A 
ATOM     21  N   UNL d   1      54.767   0.588  35.084  0.00  0.00    -0.236 NA
ATOM     22  C   UNL d   1      54.917   0.410  33.583  0.00  0.00     0.020 A 
ATOM     23  C   UNL d   1      55.477   0.355  32.979  0.00  0.00     0.006 A 
ENDBRANCH   2  15
TORSDOF 3
ENDMDL
MODEL 2
REMARK VINA RESULT:      -4.4      1.510      5.415
REMARK  3 active torsions:
REMARK  status: ('A' for Active; 'I' for Inactive)
REMARK    1  A    between atoms: N_3  and  C_1 
REMARK       I    between atoms: C_5  and  N_3 
REMARK    2  A    between atoms: C_9  and  C_5 
REMARK    3  A    between atoms: O_22  and  C_20 
ROOT
ATOM      1  N   UNL d   1      57.039   0.443  31.793  0.00  0.00    -0.183 NA
ATOM      2  C   UNL d   1      57.260  -0.289  31.483  0.00  0.00     0.281 C 
ATOM      3  O   UNL d   1      57.030  -0.997  31.883  0.00  0.00    -0.265 OA
ENDROOT
BRANCH   1   4
ATOM      4  C   UNL d   1      56.596   0.493  32.487  0.00  0.00     0.197 A 
ATOM      5  N   UNL d   1      55.767   0.536  32.518  0.00  0.00    -0.221 NA
ATOM      6  C   UNL d   1      55.558   0.578  33.322  0.00  0.00     0.090 A 
ATOM      7  C   UNL d   1      54.822   0.631  33.689  0.00  0.00     0.022 A 
ATOM      8  C   UNL d   1      56.253   0.560  33.766  0.00  0.00     0.052 A 
ATOM      9  C   UNL d   1      54.791   0.665  34.519  0.00  0.00     0.026 A 
ATOM     10  C   UNL d   1      55.479   0.646  34.959  0.00  0.00     0.095 A 
ATOM     11  C   UNL d   1      56.224   0.594  34.596  0.00  0.00     0.032 A 
ATOM     12  S   UNL d   1      56.880   0.508  33.245  0.00  0.00    -0.047 SA
BRANCH  10  13
ATOM     13  O   UNL d   1      55.455   0.681  35.814  0.00  0.00    -0.328 OA
ATOM     14  C   UNL d   1      54.711   0.648  36.202  0.00  0.00     0.181 C 
ENDBRANCH  10  13
ENDBRANCH   1   4
BRANCH   2  15
ATOM     15  C   UNL d   1      57.703  -0.339  30.790  0.00  0.00     0.059 A 
ATOM     16  C   UNL d   1      57.847  -1.075  30.452  0.00  0.00     0.013 A 
ATOM     17  C   UNL d   1      58.286  -1.138  29.764  0.00  0.00     0.049 A 
ATOM     18  S   UNL d   1      58.516  -1.793  29.306  0.00  0.00    -0.064 SA
ATOM     19  C   UNL d   1      58.590  -0.445  29.398  0.00  0.00     0.088 A 
ATOM     20  C   UNL d   1      58.957  -1.497  28.668  0.00  0.00     0.135 A 
ATOM     21  N   UNL d   1      59.009  -0.679  28.714  0.00  0.00    -0.236 NA
ATOM     22  C   UNL d   1      58.451   0.303  29.729  0.00  0.00     0.020 A 
ATOM     23  C   UNL d   1      58.008   0.352  30.424  0.00  0.00     0.006 A 
ENDBRANCH   2  15
TORSDOF 3
ENDMDL
MODEL 3
REMARK VINA RESULT:      -2.4      1.889      5.521
REMARK  3 active torsions:
REMARK  status: ('A' for Active; 'I' for Inactive)
REMARK    1  A    between atoms: N_3  and  C_1 
REMARK       I    between atoms: C_5  and  N_3 
REMARK    2  A    between atoms: C_9  and  C_5 
REMARK    3  A    between atoms: O_22  and  C_20 
ROOT
ATOM      1  N   UNL d   1      57.515  -1.416  31.036  0.00  0.00    -0.183 NA
ATOM      2  C   UNL d   1      57.914  -1.014  30.435  0.00  0.00     0.281 C 
ATOM      3  O   UNL d   1      57.821  -0.179  30.360  0.00  0.00    -0.265 OA
ENDROOT
BRANCH   1   4
ATOM      4  C   UNL d   1      57.028  -1.012  31.564  0.00  0.00     0.197 A 
ATOM      5  N   UNL d   1      56.874  -0.196  31.539  0.00  0.00    -0.221 NA
ATOM      6  C   UNL d   1      56.360  -0.027  32.169  0.00  0.00     0.090 A 
ATOM      7  C   UNL d   1      56.020   0.682  32.418  0.00  0.00     0.022 A 
ATOM      8  C   UNL d   1      56.207  -0.733  32.568  0.00  0.00     0.052 A 
ATOM      9  C   UNL d   1      55.518   0.673  33.081  0.00  0.00     0.026 A 
ATOM     10  C   UNL d   1      55.367  -0.025  33.476  0.00  0.00     0.095 A 
ATOM     11  C   UNL d   1      55.706  -0.742  33.231  0.00  0.00     0.032 A 
ATOM     12  S   UNL d   1      56.621  -1.327  32.189  0.00  0.00    -0.047 SA
BRANCH  10  13
ATOM     13  O   UNL d   1      54.851  -0.041  34.159  0.00  0.00    -0.328 OA
ATOM     14  C   UNL d   1      55.008   0.480  34.799  0.00  0.00     0.181 C 
ENDBRANCH  10  13
ENDBRANCH   1   4
BRANCH   2  15
ATOM     15  C   UNL d   1      58.401  -1.418  29.907  0.00  0.00     0.059 A 
ATOM     16  C   UNL d   1      58.740  -2.132  30.133  0.00  0.00     0.013 A 
ATOM     17  C   UNL d   1      59.226  -2.544  29.618  0.00  0.00     0.049 A 
ATOM     18  S   UNL d   1      59.636  -3.262  29.691  0.00  0.00    -0.064 SA
ATOM     19  C   UNL d   1      59.379  -2.234  28.852  0.00  0.00     0.088 A 
ATOM     20  C   UNL d   1      60.035  -3.386  28.974  0.00  0.00     0.135 A 
ATOM     21  N   UNL d   1      59.886  -2.767  28.456  0.00  0.00    -0.236 NA
ATOM     22  C   UNL d   1      59.042  -1.514  28.612  0.00  0.00     0.020 A 
ATOM     23  C   UNL d   1      58.554  -1.110  29.141  0.00  0.00     0.006 A 
ENDBRANCH   2  15
TORSDOF 3
ENDMDL
