MODEL 1
REMARK VINA RESULT:      12.0      0.000      0.000
REMARK  1 active torsions:
REMARK  status: ('A' for Active; 'I' for Inactive)
REMARK    1  A    between atoms: C_4  and  C_1 
ROOT
ATOM      1  C   UNL d   1      13.704  12.329  -2.654  0.00  0.00     0.112 A 
ATOM      2  N   UNL d   1      14.470  12.519  -2.394  0.00  0.00    -0.238 NA
ATOM      3  S   UNL d   1      13.279  12.019  -2.007  0.00  0.00    -0.066 SA
ATOM      4  C   UNL d   1      14.519  12.327  -1.587  0.00  0.00     0.088 A 
ATOM      5  C   UNL d   1      13.785  12.019  -1.349  0.00  0.00     0.049 A 
ATOM      6  C   UNL d   1      15.135  12.394  -1.043  0.00  0.00     0.020 A 
ATOM      7  C   UNL d   1      13.671  11.779  -0.568  0.00  0.00     0.008 A 
ATOM      8  C   UNL d   1      14.288  11.846  -0.024  0.00  0.00     0.001 A 
ATOM      9  C   UNL d   1      15.022  12.154  -0.262  0.00  0.00     0.002 A 
ENDROOT
BRANCH   1  10
ATOM     10  C   UNL d   1      13.410  12.427  -3.420  0.00  0.00     0.043 A 
ATOM     11  C   UNL d   1      13.405  13.181  -3.764  0.00  0.00     0.105 A 
ATOM     12  N   UNL d   1      13.694  13.829  -3.342  0.00  0.00    -0.148 N 
ATOM     13  C   UNL d   1      13.111  13.280  -4.530  0.00  0.00     0.021 A 
ATOM     14  C   UNL d   1      12.822  12.633  -4.953  0.00  0.00     0.002 A 
ATOM     15  C   UNL d   1      12.832  11.881  -4.597  0.00  0.00     0.000 A 
ATOM     16  C   UNL d   1      13.121  11.780  -3.843  0.00  0.00     0.004 A 
ENDBRANCH   1  10
TORSDOF 1
ENDMDL
