MODEL 1
REMARK VINA RESULT:      21.3      0.000      0.000
REMARK  5 active torsions:
REMARK  status: ('A' for Active; 'I' for Inactive)
REMARK    1  A    between atoms: N_2  and  S_1 
REMARK    2  A    between atoms: C_7  and  S_1 
REMARK    3  A    between atoms: C_3  and  N_2 
REMARK       I    between atoms: C_11  and  N_12 
REMARK    4  A    between atoms: C_19  and  C_11 
REMARK    5  A    between atoms: N_12  and  C_16 
ROOT
ATOM      1  C   UNL d   1      14.079  12.765  -1.605  0.00  0.00     0.105 A 
ATOM      2  C   UNL d   1      13.624  12.071  -1.616  0.00  0.00     0.015 A 
ATOM      3  C   UNL d   1      14.254  13.161  -2.273  0.00  0.00     0.015 A 
ATOM      4  C   UNL d   1      13.511  12.166  -3.010  0.00  0.00     0.085 A 
ATOM      5  C   UNL d   1      13.345  11.780  -2.321  0.00  0.00     0.020 A 
ATOM      6  C   UNL d   1      13.966  12.861  -2.998  0.00  0.00     0.020 A 
ENDROOT
BRANCH   1   7
ATOM      7  S   UNL d   1      14.364  13.059  -0.869  0.00  0.00     0.287 S 
ATOM      8  O   UNL d   1      15.101  12.647  -0.977  0.00  0.00    -0.198 OA
ATOM      9  O   UNL d   1      13.652  13.461  -0.757  0.00  0.00    -0.198 OA
BRANCH   7  10
ATOM     10  N   UNL d   1      14.640  13.352  -0.140  0.00  0.00    -0.137 NA
BRANCH  10  11
ATOM     11  C   UNL d   1      15.000  14.105  -0.098  0.00  0.00     0.203 A 
ATOM     12  N   UNL d   1      14.526  14.767  -0.049  0.00  0.00    -0.106 NA
ATOM     13  O   UNL d   1      15.043  15.419  -0.016  0.00  0.00    -0.210 OA
ATOM     14  C   UNL d   1      15.809  15.148  -0.046  0.00  0.00     0.128 A 
ATOM     15  C   UNL d   1      15.789  14.312  -0.098  0.00  0.00     0.069 A 
ATOM     16  C   UNL d   1      16.487  15.613  -0.027  0.00  0.00     0.029 C 
ENDBRANCH  10  11
ENDBRANCH   7  10
ENDBRANCH   1   7
BRANCH   4  17
ATOM     17  N   UNL d   1      13.228  11.873  -3.738  0.00  0.00    -0.208 NA
ATOM     18  C   UNL d   1      13.112  12.381  -4.369  0.00  0.00     0.279 C 
ATOM     19  O   UNL d   1      12.831  12.090  -5.091  0.00  0.00    -0.265 OA
BRANCH  18  20
ATOM     20  C   UNL d   1      13.275  13.175  -4.281  0.00  0.00     0.062 C 
ATOM     21  C   UNL d   1      12.923  13.744  -4.794  0.00  0.00     0.005 C 
ENDBRANCH  18  20
ENDBRANCH   4  17
TORSDOF 5
ENDMDL
