MODEL 1
REMARK VINA RESULT:      -8.6      0.000      0.000
REMARK  2 active torsions:
REMARK  status: ('A' for Active; 'I' for Inactive)
REMARK    1  A    between atoms: N_8  and  C_7 
REMARK    2  A    between atoms: C_9  and  N_8 
ROOT
ATOM      1  N   UNL d   1      54.223  32.368  53.400  0.00  0.00    -0.245 NA
ENDROOT
BRANCH   1   2
ATOM      2  C   UNL d   1      54.100  32.945  53.967  0.00  0.00     0.093 A 
ATOM      3  C   UNL d   1      54.552  33.067  54.642  0.00  0.00     0.118 A 
ATOM      4  S   UNL d   1      54.222  33.710  55.049  0.00  0.00     0.213 S 
ATOM      5  C   UNL d   1      53.572  33.981  54.626  0.00  0.00     0.100 A 
ATOM      6  O   UNL d   1      53.847  34.352  55.402  0.00  0.00    -0.217 OA
ATOM      7  O   UNL d   1      54.880  33.375  55.404  0.00  0.00    -0.217 OA
ATOM      8  C   UNL d   1      53.497  33.507  53.956  0.00  0.00     0.032 A 
ENDBRANCH   1   2
BRANCH   1   9
ATOM      9  C   UNL d   1      53.687  31.741  53.335  0.00  0.00     0.082 A 
ATOM     10  C   UNL d   1      53.854  31.017  53.693  0.00  0.00     0.030 A 
ATOM     11  C   UNL d   1      53.328  30.398  53.630  0.00  0.00     0.059 A 
ATOM     12 CL   UNL d   1      53.410  29.650  53.950  0.00  0.00    -0.082 Cl
ATOM     13  C   UNL d   1      52.626  30.495  53.207  0.00  0.00     0.011 A 
ATOM     14  C   UNL d   1      52.458  31.218  52.848  0.00  0.00     0.002 A 
ATOM     15  C   UNL d   1      52.994  31.846  52.913  0.00  0.00     0.019 A 
ENDBRANCH   1   9
TORSDOF 2
ENDMDL
MODEL 2
REMARK VINA RESULT:      -8.4      2.317      3.234
REMARK  2 active torsions:
REMARK  status: ('A' for Active; 'I' for Inactive)
REMARK    1  A    between atoms: N_8  and  C_7 
REMARK    2  A    between atoms: C_9  and  N_8 
ROOT
ATOM      1  N   UNL d   1      53.927  31.909  53.169  0.00  0.00    -0.245 NA
ENDROOT
BRANCH   1   2
ATOM      2  C   UNL d   1      53.458  31.242  53.235  0.00  0.00     0.093 A 
ATOM      3  C   UNL d   1      53.685  30.516  53.546  0.00  0.00     0.118 A 
ATOM      4  S   UNL d   1      53.031  30.009  53.499  0.00  0.00     0.213 S 
ATOM      5  C   UNL d   1      52.405  30.421  53.161  0.00  0.00     0.100 A 
ATOM      6  O   UNL d   1      52.346  29.559  53.423  0.00  0.00    -0.217 OA
ATOM      7  O   UNL d   1      53.704  29.678  53.826  0.00  0.00    -0.217 OA
ATOM      8  C   UNL d   1      52.670  31.184  52.997  0.00  0.00     0.032 A 
ENDBRANCH   1   2
BRANCH   1   9
ATOM      9  C   UNL d   1      53.836  32.525  53.714  0.00  0.00     0.082 A 
ATOM     10  C   UNL d   1      54.372  32.607  54.336  0.00  0.00     0.030 A 
ATOM     11  C   UNL d   1      54.285  33.212  54.874  0.00  0.00     0.059 A 
ATOM     12 CL   UNL d   1      54.764  33.370  55.517  0.00  0.00    -0.082 Cl
ATOM     13  C   UNL d   1      53.660  33.747  54.797  0.00  0.00     0.011 A 
ATOM     14  C   UNL d   1      53.124  33.665  54.175  0.00  0.00     0.002 A 
ATOM     15  C   UNL d   1      53.214  33.049  53.629  0.00  0.00     0.019 A 
ENDBRANCH   1   9
TORSDOF 2
ENDMDL
MODEL 3
REMARK VINA RESULT:      -8.1      2.615      3.468
REMARK  2 active torsions:
REMARK  status: ('A' for Active; 'I' for Inactive)
REMARK    1  A    between atoms: N_8  and  C_7 
REMARK    2  A    between atoms: C_9  and  N_8 
ROOT
ATOM      1  N   UNL d   1      52.939  31.610  52.593  0.00  0.00    -0.245 NA
ENDROOT
BRANCH   1   2
ATOM      2  C   UNL d   1      53.036  30.936  53.045  0.00  0.00     0.093 A 
ATOM      3  C   UNL d   1      52.544  30.277  53.048  0.00  0.00     0.118 A 
ATOM      4  S   UNL d   1      52.859  29.735  53.590  0.00  0.00     0.213 S 
ATOM      5  C   UNL d   1      53.539  30.057  53.918  0.00  0.00     0.100 A 
ATOM      6  O   UNL d   1      53.221  29.241  54.140  0.00  0.00    -0.217 OA
ATOM      7  O   UNL d   1      52.173  29.492  53.212  0.00  0.00    -0.217 OA
ATOM      8  C   UNL d   1      53.649  30.801  53.581  0.00  0.00     0.032 A 
ENDBRANCH   1   2
BRANCH   1   9
ATOM      9  C   UNL d   1      52.705  32.315  52.957  0.00  0.00     0.082 A 
ATOM     10  C   UNL d   1      51.912  32.543  52.942  0.00  0.00     0.030 A 
ATOM     11  C   UNL d   1      51.679  33.236  53.300  0.00  0.00     0.059 A 
ATOM     12 CL   UNL d   1      50.921  33.540  53.335  0.00  0.00    -0.082 Cl
ATOM     13  C   UNL d   1      52.236  33.713  53.680  0.00  0.00     0.011 A 
ATOM     14  C   UNL d   1      53.029  33.485  53.695  0.00  0.00     0.002 A 
ATOM     15  C   UNL d   1      53.265  32.780  53.331  0.00  0.00     0.019 A 
ENDBRANCH   1   9
TORSDOF 2
ENDMDL
MODEL 4
REMARK VINA RESULT:      -8.0      2.414      3.047
REMARK  2 active torsions:
REMARK  status: ('A' for Active; 'I' for Inactive)
REMARK    1  A    between atoms: N_8  and  C_7 
REMARK    2  A    between atoms: C_9  and  N_8 
ROOT
ATOM      1  N   UNL d   1      53.266  32.983  53.097  0.00  0.00    -0.245 NA
ENDROOT
BRANCH   1   2
ATOM      2  C   UNL d   1      52.506  33.284  53.067  0.00  0.00     0.093 A 
ATOM      3  C   UNL d   1      52.290  34.032  52.805  0.00  0.00     0.118 A 
ATOM      4  S   UNL d   1      51.466  34.091  52.876  0.00  0.00     0.213 S 
ATOM      5  C   UNL d   1      51.178  33.384  53.179  0.00  0.00     0.100 A 
ATOM      6  O   UNL d   1      50.648  34.085  52.971  0.00  0.00    -0.217 OA
ATOM      7  O   UNL d   1      51.838  34.758  52.578  0.00  0.00    -0.217 OA
ATOM      8  C   UNL d   1      51.823  32.884  53.298  0.00  0.00     0.032 A 
ENDBRANCH   1   2
BRANCH   1   9
ATOM      9  C   UNL d   1      53.647  32.910  53.828  0.00  0.00     0.082 A 
ATOM     10  C   UNL d   1      54.173  33.494  54.079  0.00  0.00     0.030 A 
ATOM     11  C   UNL d   1      54.549  33.424  54.798  0.00  0.00     0.059 A 
ATOM     12 CL   UNL d   1      55.082  33.950  55.126  0.00  0.00    -0.082 Cl
ATOM     13  C   UNL d   1      54.404  32.768  55.278  0.00  0.00     0.011 A 
ATOM     14  C   UNL d   1      53.879  32.183  55.027  0.00  0.00     0.002 A 
ATOM     15  C   UNL d   1      53.497  32.256  54.296  0.00  0.00     0.019 A 
ENDBRANCH   1   9
TORSDOF 2
ENDMDL
MODEL 5
REMARK VINA RESULT:      -8.0      1.894      2.451
REMARK  2 active torsions:
REMARK  status: ('A' for Active; 'I' for Inactive)
REMARK    1  A    between atoms: N_8  and  C_7 
REMARK    2  A    between atoms: C_9  and  N_8 
ROOT
ATOM      1  N   UNL d   1      53.363  32.910  53.302  0.00  0.00    -0.245 NA
ENDROOT
BRANCH   1   2
ATOM      2  C   UNL d   1      53.832  33.061  53.955  0.00  0.00     0.093 A 
ATOM      3  C   UNL d   1      53.824  32.648  54.665  0.00  0.00     0.118 A 
ATOM      4  S   UNL d   1      54.390  32.996  55.161  0.00  0.00     0.213 S 
ATOM      5  C   UNL d   1      54.743  33.619  54.758  0.00  0.00     0.100 A 
ATOM      6  O   UNL d   1      54.966  33.386  55.601  0.00  0.00    -0.217 OA
ATOM      7  O   UNL d   1      53.987  32.361  55.486  0.00  0.00    -0.217 OA
ATOM      8  C   UNL d   1      54.397  33.659  54.011  0.00  0.00     0.032 A 
ENDBRANCH   1   2
BRANCH   1   9
ATOM      9  C   UNL d   1      52.694  33.377  53.165  0.00  0.00     0.082 A 
ATOM     10  C   UNL d   1      51.942  33.075  53.321  0.00  0.00     0.030 A 
ATOM     11  C   UNL d   1      51.281  33.533  53.187  0.00  0.00     0.059 A 
ATOM     12 CL   UNL d   1      50.502  33.319  53.311  0.00  0.00    -0.082 Cl
ATOM     13  C   UNL d   1      51.363  34.301  52.894  0.00  0.00     0.011 A 
ATOM     14  C   UNL d   1      52.115  34.603  52.737  0.00  0.00     0.002 A 
ATOM     15  C   UNL d   1      52.785  34.136  52.874  0.00  0.00     0.019 A 
ENDBRANCH   1   9
TORSDOF 2
ENDMDL
