MODEL 1
REMARK VINA RESULT:      61.9      0.000      0.000
REMARK  2 active torsions:
REMARK  status: ('A' for Active; 'I' for Inactive)
REMARK       I    between atoms: N_4  and  C_1 
REMARK    1  A    between atoms: C_5  and  C_1 
REMARK       I    between atoms: C_2  and  N_3 
REMARK    2  A    between atoms: C_6  and  C_2 
ROOT
ATOM      1  C   UNL d   1      13.451  14.844  -5.199  0.00  0.00     0.265 C 
ATOM      2  C   UNL d   1      13.530  12.327  -2.766  0.00  0.00     0.265 C 
ATOM      3  N   UNL d   1      13.713  13.039  -3.116  0.00  0.00    -0.270 N 
ATOM      4  N   UNL d   1      13.589  14.302  -4.476  0.00  0.00    -0.270 N 
ATOM      5  C   UNL d   1      13.258  13.000  -3.829  0.00  0.00     0.102 A 
ATOM      6  C   UNL d   1      13.204  13.590  -4.457  0.00  0.00     0.102 A 
ATOM      7  O   UNL d   1      12.891  14.563  -5.863  0.00  0.00    -0.267 OA
ATOM      8  O   UNL d   1      13.025  11.816  -3.127  0.00  0.00    -0.267 OA
ATOM      9  C   UNL d   1      14.301  14.234  -3.243  0.00  0.00     0.038 A 
ATOM     10  C   UNL d   1      14.038  14.546  -3.961  0.00  0.00     0.085 A 
ATOM     11  C   UNL d   1      14.193  13.653  -2.889  0.00  0.00     0.085 A 
ENDROOT
BRANCH   2  12
ATOM     12  C   UNL d   1      13.865  12.143  -2.046  0.00  0.00     0.057 A 
ATOM     13  C   UNL d   1      13.388  12.065  -1.408  0.00  0.00     0.005 A 
ATOM     14  C   UNL d   1      13.714  11.881  -0.684  0.00  0.00     0.000 A 
ATOM     15  C   UNL d   1      13.244  11.799  -0.027  0.00  0.00     0.000 C 
ATOM     16  C   UNL d   1      14.517  11.780  -0.618  0.00  0.00     0.000 A 
ATOM     17  C   UNL d   1      14.991  11.861  -1.270  0.00  0.00     0.000 A 
ATOM     18  C   UNL d   1      14.664  12.043  -1.985  0.00  0.00     0.005 A 
ENDBRANCH   2  12
BRANCH   1  19
ATOM     19  C   UNL d   1      13.895  15.645  -5.203  0.00  0.00     0.057 A 
ATOM     20  C   UNL d   1      14.361  15.906  -4.475  0.00  0.00     0.005 A 
ATOM     21  C   UNL d   1      14.802  16.701  -4.477  0.00  0.00     0.000 A 
ATOM     22  C   UNL d   1      15.276  16.982  -3.758  0.00  0.00     0.000 C 
ATOM     23  C   UNL d   1      14.775  17.237  -5.217  0.00  0.00     0.000 A 
ATOM     24  C   UNL d   1      14.301  16.968  -5.951  0.00  0.00     0.000 A 
ATOM     25  C   UNL d   1      13.859  16.169  -5.945  0.00  0.00     0.005 A 
ENDBRANCH   1  19
TORSDOF 2
ENDMDL
MODEL 2
REMARK VINA RESULT:      62.9      0.472      4.946
REMARK  2 active torsions:
REMARK  status: ('A' for Active; 'I' for Inactive)
REMARK       I    between atoms: N_4  and  C_1 
REMARK    1  A    between atoms: C_5  and  C_1 
REMARK       I    between atoms: C_2  and  N_3 
REMARK    2  A    between atoms: C_6  and  C_2 
ROOT
ATOM      1  C   UNL d   1      13.304  12.345  -2.877  0.00  0.00     0.265 C 
ATOM      2  C   UNL d   1      13.747  15.239  -4.800  0.00  0.00     0.265 C 
ATOM      3  N   UNL d   1      13.831  14.741  -4.161  0.00  0.00    -0.270 N 
ATOM      4  N   UNL d   1      13.523  13.158  -3.236  0.00  0.00    -0.270 N 
ATOM      5  C   UNL d   1      13.372  14.073  -4.402  0.00  0.00     0.102 A 
ATOM      6  C   UNL d   1      13.232  13.340  -3.968  0.00  0.00     0.102 A 
ATOM      7  O   UNL d   1      12.771  11.779  -3.357  0.00  0.00    -0.267 OA
ATOM      8  O   UNL d   1      13.304  15.013  -5.432  0.00  0.00    -0.267 OA
ATOM      9  C   UNL d   1      14.261  14.344  -2.957  0.00  0.00     0.038 A 
ATOM     10  C   UNL d   1      13.947  13.590  -2.837  0.00  0.00     0.085 A 
ATOM     11  C   UNL d   1      14.235  14.816  -3.459  0.00  0.00     0.085 A 
ENDROOT
BRANCH   2  12
ATOM     12  C   UNL d   1      14.116  15.964  -4.787  0.00  0.00     0.057 A 
ATOM     13  C   UNL d   1      13.975  16.480  -5.384  0.00  0.00     0.005 A 
ATOM     14  C   UNL d   1      14.339  17.208  -5.380  0.00  0.00     0.000 A 
ATOM     15  C   UNL d   1      14.206  17.741  -5.977  0.00  0.00     0.000 C 
ATOM     16  C   UNL d   1      14.842  17.403  -4.772  0.00  0.00     0.000 A 
ATOM     17  C   UNL d   1      14.978  16.875  -4.173  0.00  0.00     0.000 A 
ATOM     18  C   UNL d   1      14.615  16.155  -4.181  0.00  0.00     0.005 A 
ENDBRANCH   2  12
BRANCH   1  19
ATOM     19  C   UNL d   1      13.642  12.156  -2.048  0.00  0.00     0.057 A 
ATOM     20  C   UNL d   1      14.535  12.101  -1.927  0.00  0.00     0.005 A 
ATOM     21  C   UNL d   1      14.873  11.913  -1.105  0.00  0.00     0.000 A 
ATOM     22  C   UNL d   1      15.765  11.853  -0.961  0.00  0.00     0.000 C 
ATOM     23  C   UNL d   1      14.309  11.780  -0.398  0.00  0.00     0.000 A 
ATOM     24  C   UNL d   1      13.406  11.838  -0.526  0.00  0.00     0.000 A 
ATOM     25  C   UNL d   1      13.070  12.026  -1.353  0.00  0.00     0.005 A 
ENDBRANCH   1  19
TORSDOF 2
ENDMDL
