MODEL 1
REMARK VINA RESULT:      -9.5      0.000      0.000
REMARK  4 active torsions:
REMARK  status: ('A' for Active; 'I' for Inactive)
REMARK    1  A    between atoms: C_2  and  S_1 
REMARK    2  A    between atoms: N_3  and  S_1 
REMARK    3  A    between atoms: C_14  and  N_3 
REMARK       I    between atoms: C_7  and  N_8 
REMARK    4  A    between atoms: N_8  and  C_15 
ROOT
ATOM      1  S   UNL d   1      52.615  32.402  52.799  0.00  0.00     0.285 S 
ATOM      2  O   UNL d   1      53.400  32.511  52.541  0.00  0.00    -0.198 OA
ATOM      3  O   UNL d   1      51.834  32.285  53.051  0.00  0.00    -0.198 OA
ENDROOT
BRANCH   1   4
ATOM      4  C   UNL d   1      52.646  33.154  53.175  0.00  0.00     0.105 A 
ATOM      5  C   UNL d   1      53.093  33.274  53.837  0.00  0.00     0.013 A 
ATOM      6  C   UNL d   1      53.117  34.016  54.197  0.00  0.00     0.001 A 
ATOM      7  C   UNL d   1      53.595  34.115  54.892  0.00  0.00     0.000 A 
ATOM      8  C   UNL d   1      52.694  34.644  53.899  0.00  0.00     0.000 A 
ATOM      9  C   UNL d   1      53.638  34.842  55.272  0.00  0.00     0.000 A 
ATOM     10  C   UNL d   1      53.194  35.496  54.957  0.00  0.00     0.000 A 
ATOM     11  C   UNL d   1      52.726  35.388  54.271  0.00  0.00     0.000 A 
ATOM     12  C   UNL d   1      52.218  34.526  53.199  0.00  0.00     0.001 A 
ATOM     13  C   UNL d   1      52.209  33.780  52.856  0.00  0.00     0.013 A 
ENDBRANCH   1   4
BRANCH   1  14
ATOM     14  N   UNL d   1      52.594  31.660  52.425  0.00  0.00    -0.158 NA
BRANCH  14  15
ATOM     15  C   UNL d   1      52.793  30.989  52.856  0.00  0.00     0.094 A 
ATOM     16  C   UNL d   1      52.172  30.507  53.095  0.00  0.00     0.021 A 
ATOM     17  C   UNL d   1      52.346  29.815  53.538  0.00  0.00     0.021 A 
ATOM     18  C   UNL d   1      53.131  29.638  53.720  0.00  0.00     0.085 A 
ATOM     19  C   UNL d   1      53.732  30.143  53.465  0.00  0.00     0.021 A 
ATOM     20  C   UNL d   1      53.563  30.816  53.035  0.00  0.00     0.021 A 
BRANCH  18  21
ATOM     21  N   UNL d   1      53.304  28.937  54.168  0.00  0.00    -0.208 NA
ATOM     22  C   UNL d   1      53.335  28.972  55.015  0.00  0.00     0.279 C 
ATOM     23  O   UNL d   1      53.198  29.686  55.417  0.00  0.00    -0.265 OA
ATOM     24  C   UNL d   1      53.502  28.292  55.421  0.00  0.00     0.068 C 
ENDBRANCH  18  21
ENDBRANCH  14  15
ENDBRANCH   1  14
TORSDOF 4
ENDMDL
MODEL 2
REMARK VINA RESULT:      -9.2      2.200      4.895
REMARK  4 active torsions:
REMARK  status: ('A' for Active; 'I' for Inactive)
REMARK    1  A    between atoms: C_2  and  S_1 
REMARK    2  A    between atoms: N_3  and  S_1 
REMARK    3  A    between atoms: C_14  and  N_3 
REMARK       I    between atoms: C_7  and  N_8 
REMARK    4  A    between atoms: N_8  and  C_15 
ROOT
ATOM      1  S   UNL d   1      52.489  33.520  53.281  0.00  0.00     0.285 S 
ATOM      2  O   UNL d   1      52.882  33.559  52.548  0.00  0.00    -0.198 OA
ATOM      3  O   UNL d   1      52.093  33.491  54.009  0.00  0.00    -0.198 OA
ENDROOT
BRANCH   1   4
ATOM      4  C   UNL d   1      52.846  32.772  53.420  0.00  0.00     0.105 A 
ATOM      5  C   UNL d   1      52.539  32.095  53.103  0.00  0.00     0.013 A 
ATOM      6  C   UNL d   1      52.897  31.366  53.246  0.00  0.00     0.001 A 
ATOM      7  C   UNL d   1      52.555  30.670  52.901  0.00  0.00     0.000 A 
ATOM      8  C   UNL d   1      53.566  31.307  53.707  0.00  0.00     0.000 A 
ATOM      9  C   UNL d   1      52.890  29.930  53.026  0.00  0.00     0.000 A 
ATOM     10  C   UNL d   1      53.588  29.873  53.509  0.00  0.00     0.000 A 
ATOM     11  C   UNL d   1      53.919  30.565  53.845  0.00  0.00     0.000 A 
ATOM     12  C   UNL d   1      53.897  32.018  54.047  0.00  0.00     0.001 A 
ATOM     13  C   UNL d   1      53.524  32.733  53.892  0.00  0.00     0.013 A 
ENDBRANCH   1   4
BRANCH   1  14
ATOM     14  N   UNL d   1      52.140  34.261  53.134  0.00  0.00    -0.158 NA
BRANCH  14  15
ATOM     15  C   UNL d   1      51.408  34.291  52.762  0.00  0.00     0.094 A 
ATOM     16  C   UNL d   1      51.412  34.367  51.944  0.00  0.00     0.021 A 
ATOM     17  C   UNL d   1      50.678  34.400  51.538  0.00  0.00     0.021 A 
ATOM     18  C   UNL d   1      49.975  34.355  51.969  0.00  0.00     0.085 A 
ATOM     19  C   UNL d   1      50.005  34.279  52.790  0.00  0.00     0.021 A 
ATOM     20  C   UNL d   1      50.719  34.247  53.185  0.00  0.00     0.021 A 
BRANCH  18  21
ATOM     21  N   UNL d   1      49.233  34.389  51.556  0.00  0.00    -0.208 NA
ATOM     22  C   UNL d   1      48.662  34.983  51.757  0.00  0.00     0.279 C 
ATOM     23  O   UNL d   1      48.817  35.537  52.356  0.00  0.00    -0.265 OA
ATOM     24  C   UNL d   1      47.963  34.996  51.351  0.00  0.00     0.068 C 
ENDBRANCH  18  21
ENDBRANCH  14  15
ENDBRANCH   1  14
TORSDOF 4
ENDMDL
MODEL 3
REMARK VINA RESULT:      -8.3      1.525      4.655
REMARK  4 active torsions:
REMARK  status: ('A' for Active; 'I' for Inactive)
REMARK    1  A    between atoms: C_2  and  S_1 
REMARK    2  A    between atoms: N_3  and  S_1 
REMARK    3  A    between atoms: C_14  and  N_3 
REMARK       I    between atoms: C_7  and  N_8 
REMARK    4  A    between atoms: N_8  and  C_15 
ROOT
ATOM      1  S   UNL d   1      53.338  32.231  53.314  0.00  0.00     0.285 S 
ATOM      2  O   UNL d   1      53.091  32.142  52.523  0.00  0.00    -0.198 OA
ATOM      3  O   UNL d   1      53.586  32.331  54.099  0.00  0.00    -0.198 OA
ENDROOT
BRANCH   1   4
ATOM      4  C   UNL d   1      53.259  31.401  53.420  0.00  0.00     0.105 A 
ATOM      5  C   UNL d   1      53.423  31.052  54.130  0.00  0.00     0.013 A 
ATOM      6  C   UNL d   1      53.342  30.237  54.225  0.00  0.00     0.001 A 
ATOM      7  C   UNL d   1      53.522  29.895  54.981  0.00  0.00     0.000 A 
ATOM      8  C   UNL d   1      53.096  29.763  53.610  0.00  0.00     0.000 A 
ATOM      9  C   UNL d   1      53.450  29.086  55.104  0.00  0.00     0.000 A 
ATOM     10  C   UNL d   1      53.193  28.594  54.459  0.00  0.00     0.000 A 
ATOM     11  C   UNL d   1      53.018  28.940  53.717  0.00  0.00     0.000 A 
ATOM     12  C   UNL d   1      52.920  30.124  52.856  0.00  0.00     0.001 A 
ATOM     13  C   UNL d   1      53.008  30.937  52.783  0.00  0.00     0.013 A 
ENDBRANCH   1   4
BRANCH   1  14
ATOM     14  N   UNL d   1      53.413  33.052  53.198  0.00  0.00    -0.158 NA
BRANCH  14  15
ATOM     15  C   UNL d   1      52.737  33.519  53.198  0.00  0.00     0.094 A 
ATOM     16  C   UNL d   1      52.506  33.834  52.476  0.00  0.00     0.021 A 
ATOM     17  C   UNL d   1      51.818  34.315  52.447  0.00  0.00     0.021 A 
ATOM     18  C   UNL d   1      51.395  34.458  53.141  0.00  0.00     0.085 A 
ATOM     19  C   UNL d   1      51.654  34.127  53.851  0.00  0.00     0.021 A 
ATOM     20  C   UNL d   1      52.323  33.659  53.879  0.00  0.00     0.021 A 
BRANCH  18  21
ATOM     21  N   UNL d   1      50.700  34.945  53.109  0.00  0.00    -0.208 NA
ATOM     22  C   UNL d   1      49.961  34.613  52.857  0.00  0.00     0.279 C 
ATOM     23  O   UNL d   1      49.905  33.814  52.639  0.00  0.00    -0.265 OA
ATOM     24  C   UNL d   1      49.312  35.096  52.835  0.00  0.00     0.068 C 
ENDBRANCH  18  21
ENDBRANCH  14  15
ENDBRANCH   1  14
TORSDOF 4
ENDMDL
MODEL 4
REMARK VINA RESULT:      -8.1      2.585      4.714
REMARK  4 active torsions:
REMARK  status: ('A' for Active; 'I' for Inactive)
REMARK    1  A    between atoms: C_2  and  S_1 
REMARK    2  A    between atoms: N_3  and  S_1 
REMARK    3  A    between atoms: C_14  and  N_3 
REMARK       I    between atoms: C_7  and  N_8 
REMARK    4  A    between atoms: N_8  and  C_15 
ROOT
ATOM      1  S   UNL d   1      51.900  33.880  52.804  0.00  0.00     0.285 S 
ATOM      2  O   UNL d   1      51.673  33.167  53.171  0.00  0.00    -0.198 OA
ATOM      3  O   UNL d   1      52.118  34.588  52.431  0.00  0.00    -0.198 OA
ENDROOT
BRANCH   1   4
ATOM      4  C   UNL d   1      52.509  33.969  53.377  0.00  0.00     0.105 A 
ATOM      5  C   UNL d   1      52.868  33.326  53.710  0.00  0.00     0.013 A 
ATOM      6  C   UNL d   1      53.464  33.424  54.272  0.00  0.00     0.001 A 
ATOM      7  C   UNL d   1      53.826  32.733  54.606  0.00  0.00     0.000 A 
ATOM      8  C   UNL d   1      53.706  34.165  54.506  0.00  0.00     0.000 A 
ATOM      9  C   UNL d   1      54.422  32.799  55.168  0.00  0.00     0.000 A 
ATOM     10  C   UNL d   1      54.672  33.576  55.409  0.00  0.00     0.000 A 
ATOM     11  C   UNL d   1      54.309  34.252  55.074  0.00  0.00     0.000 A 
ATOM     12  C   UNL d   1      53.331  34.851  54.159  0.00  0.00     0.001 A 
ATOM     13  C   UNL d   1      52.740  34.730  53.601  0.00  0.00     0.013 A 
ENDBRANCH   1   4
BRANCH   1  14
ATOM     14  N   UNL d   1      51.295  33.783  52.241  0.00  0.00    -0.158 NA
BRANCH  14  15
ATOM     15  C   UNL d   1      50.572  34.152  52.365  0.00  0.00     0.094 A 
ATOM     16  C   UNL d   1      50.219  34.502  51.711  0.00  0.00     0.021 A 
ATOM     17  C   UNL d   1      49.478  34.886  51.809  0.00  0.00     0.021 A 
ATOM     18  C   UNL d   1      49.127  34.903  52.555  0.00  0.00     0.085 A 
ATOM     19  C   UNL d   1      49.507  34.542  53.192  0.00  0.00     0.021 A 
ATOM     20  C   UNL d   1      50.227  34.168  53.097  0.00  0.00     0.021 A 
BRANCH  18  21
ATOM     21  N   UNL d   1      48.378  35.292  52.652  0.00  0.00    -0.208 NA
ATOM     22  C   UNL d   1      48.307  35.948  53.186  0.00  0.00     0.279 C 
ATOM     23  O   UNL d   1      48.962  36.217  53.619  0.00  0.00    -0.265 OA
ATOM     24  C   UNL d   1      47.584  36.303  53.261  0.00  0.00     0.068 C 
ENDBRANCH  18  21
ENDBRANCH  14  15
ENDBRANCH   1  14
TORSDOF 4
ENDMDL
MODEL 5
REMARK VINA RESULT:      -8.1      1.768      2.668
REMARK  4 active torsions:
REMARK  status: ('A' for Active; 'I' for Inactive)
REMARK    1  A    between atoms: C_2  and  S_1 
REMARK    2  A    between atoms: N_3  and  S_1 
REMARK    3  A    between atoms: C_14  and  N_3 
REMARK       I    between atoms: C_7  and  N_8 
REMARK    4  A    between atoms: N_8  and  C_15 
ROOT
ATOM      1  S   UNL d   1      52.428  33.552  52.892  0.00  0.00     0.285 S 
ATOM      2  O   UNL d   1      52.530  33.956  53.613  0.00  0.00    -0.198 OA
ATOM      3  O   UNL d   1      52.337  33.147  52.174  0.00  0.00    -0.198 OA
ENDROOT
BRANCH   1   4
ATOM      4  C   UNL d   1      51.647  33.860  52.842  0.00  0.00     0.105 A 
ATOM      5  C   UNL d   1      51.260  33.911  52.135  0.00  0.00     0.013 A 
ATOM      6  C   UNL d   1      50.494  34.214  52.097  0.00  0.00     0.001 A 
ATOM      7  C   UNL d   1      50.109  34.256  51.342  0.00  0.00     0.000 A 
ATOM      8  C   UNL d   1      50.107  34.469  52.767  0.00  0.00     0.000 A 
ATOM      9  C   UNL d   1      49.346  34.554  51.273  0.00  0.00     0.000 A 
ATOM     10  C   UNL d   1      48.947  34.819  51.976  0.00  0.00     0.000 A 
ATOM     11  C   UNL d   1      49.333  34.773  52.717  0.00  0.00     0.000 A 
ATOM     12  C   UNL d   1      50.509  34.419  53.520  0.00  0.00     0.001 A 
ATOM     13  C   UNL d   1      51.272  34.114  53.534  0.00  0.00     0.013 A 
ENDBRANCH   1   4
BRANCH   1  14
ATOM     14  N   UNL d   1      53.202  33.254  52.950  0.00  0.00    -0.158 NA
BRANCH  14  15
ATOM     15  C   UNL d   1      53.313  32.482  53.208  0.00  0.00     0.094 A 
ATOM     16  C   UNL d   1      53.585  32.385  53.977  0.00  0.00     0.021 A 
ATOM     17  C   UNL d   1      53.708  31.607  54.267  0.00  0.00     0.021 A 
ATOM     18  C   UNL d   1      53.554  30.963  53.775  0.00  0.00     0.085 A 
ATOM     19  C   UNL d   1      53.281  31.093  53.008  0.00  0.00     0.021 A 
ATOM     20  C   UNL d   1      53.162  31.850  52.725  0.00  0.00     0.021 A 
BRANCH  18  21
ATOM     21  N   UNL d   1      53.679  30.176  54.071  0.00  0.00    -0.208 NA
ATOM     22  C   UNL d   1      53.052  29.606  54.037  0.00  0.00     0.279 C 
ATOM     23  O   UNL d   1      52.312  29.804  53.717  0.00  0.00    -0.265 OA
ATOM     24  C   UNL d   1      53.194  28.863  54.325  0.00  0.00     0.068 C 
ENDBRANCH  18  21
ENDBRANCH  14  15
ENDBRANCH   1  14
TORSDOF 4
ENDMDL
MODEL 6
REMARK VINA RESULT:      -8.0      2.750      4.181
REMARK  4 active torsions:
REMARK  status: ('A' for Active; 'I' for Inactive)
REMARK    1  A    between atoms: C_2  and  S_1 
REMARK    2  A    between atoms: N_3  and  S_1 
REMARK    3  A    between atoms: C_14  and  N_3 
REMARK       I    between atoms: C_7  and  N_8 
REMARK    4  A    between atoms: N_8  and  C_15 
ROOT
ATOM      1  S   UNL d   1      50.712  33.973  52.326  0.00  0.00     0.285 S 
ATOM      2  O   UNL d   1      51.019  34.450  51.716  0.00  0.00    -0.198 OA
ATOM      3  O   UNL d   1      50.416  33.492  52.933  0.00  0.00    -0.198 OA
ENDROOT
BRANCH   1   4
ATOM      4  C   UNL d   1      49.997  34.414  52.297  0.00  0.00     0.105 A 
ATOM      5  C   UNL d   1      49.739  34.837  52.935  0.00  0.00     0.013 A 
ATOM      6  C   UNL d   1      49.036  35.267  52.896  0.00  0.00     0.001 A 
ATOM      7  C   UNL d   1      48.787  35.703  53.581  0.00  0.00     0.000 A 
ATOM      8  C   UNL d   1      48.585  35.278  52.219  0.00  0.00     0.000 A 
ATOM      9  C   UNL d   1      48.092  36.140  53.571  0.00  0.00     0.000 A 
ATOM     10  C   UNL d   1      47.623  36.149  52.861  0.00  0.00     0.000 A 
ATOM     11  C   UNL d   1      47.876  35.715  52.191  0.00  0.00     0.000 A 
ATOM     12  C   UNL d   1      48.850  34.833  51.539  0.00  0.00     0.001 A 
ATOM     13  C   UNL d   1      49.553  34.412  51.599  0.00  0.00     0.013 A 
ENDBRANCH   1   4
BRANCH   1  14
ATOM     14  N   UNL d   1      51.424  33.542  52.347  0.00  0.00    -0.158 NA
BRANCH  14  15
ATOM     15  C   UNL d   1      51.974  33.709  52.934  0.00  0.00     0.094 A 
ATOM     16  C   UNL d   1      52.069  33.143  53.522  0.00  0.00     0.021 A 
ATOM     17  C   UNL d   1      52.625  33.287  54.135  0.00  0.00     0.021 A 
ATOM     18  C   UNL d   1      53.059  33.990  54.130  0.00  0.00     0.085 A 
ATOM     19  C   UNL d   1      52.940  34.538  53.525  0.00  0.00     0.021 A 
ATOM     20  C   UNL d   1      52.399  34.398  52.930  0.00  0.00     0.021 A 
BRANCH  18  21
ATOM     21  N   UNL d   1      53.620  34.133  54.751  0.00  0.00    -0.208 NA
ATOM     22  C   UNL d   1      54.367  33.730  54.750  0.00  0.00     0.279 C 
ATOM     23  O   UNL d   1      54.559  33.193  54.147  0.00  0.00    -0.265 OA
ATOM     24  C   UNL d   1      54.886  33.883  55.351  0.00  0.00     0.068 C 
ENDBRANCH  18  21
ENDBRANCH  14  15
ENDBRANCH   1  14
TORSDOF 4
ENDMDL
