MODEL 1
REMARK VINA RESULT:      28.2      0.000      0.000
REMARK  3 active torsions:
REMARK  status: ('A' for Active; 'I' for Inactive)
REMARK    1  A    between atoms: C_2  and  S_1 
REMARK    2  A    between atoms: N_3  and  S_1 
REMARK    3  A    between atoms: C_10  and  N_3 
ROOT
ATOM      1  C   UNL d   1      58.946  49.689  50.219  0.00  0.00     0.107 A 
ATOM      2  C   UNL d   1      58.488  49.661  49.533  0.00  0.00     0.040 A 
ATOM      3  C   UNL d   1      57.672  49.651  49.559  0.00  0.00     0.123 A 
ATOM      4  C   UNL d   1      57.296  49.669  50.284  0.00  0.00     0.123 A 
ATOM      5  O   UNL d   1      57.247  49.624  48.891  0.00  0.00    -0.301 OA
ATOM      6  O   UNL d   1      56.493  49.660  50.346  0.00  0.00    -0.301 OA
ATOM      7  C   UNL d   1      58.558  49.708  50.968  0.00  0.00     0.015 A 
ATOM      8  C   UNL d   1      57.733  49.697  50.988  0.00  0.00     0.028 A 
ATOM      9  C   UNL d   1      56.422  49.614  48.912  0.00  0.00     0.149 A 
ATOM     10  C   UNL d   1      56.034  49.632  49.661  0.00  0.00     0.149 A 
ENDROOT
BRANCH   1  11
ATOM     11  S   UNL d   1      59.784  49.699  50.149  0.00  0.00     0.285 S 
ATOM     12  O   UNL d   1      60.631  49.708  50.072  0.00  0.00    -0.198 OA
ATOM     13  O   UNL d   1      59.739  49.704  49.312  0.00  0.00    -0.198 OA
BRANCH  11  14
ATOM     14  N   UNL d   1      59.871  49.694  50.964  0.00  0.00    -0.157 NA
BRANCH  14  15
ATOM     15  C   UNL d   1      60.494  49.350  51.319  0.00  0.00     0.113 A 
ATOM     16  C   UNL d   1      60.885  48.721  50.955  0.00  0.00     0.119 A 
ATOM     17  N   UNL d   1      61.530  48.365  51.322  0.00  0.00    -0.241 NA
ATOM     18  C   UNL d   1      61.780  48.629  52.037  0.00  0.00     0.099 A 
ATOM     19  C   UNL d   1      61.387  49.272  52.417  0.00  0.00     0.022 A 
ATOM     20  C   UNL d   1      60.749  49.612  52.036  0.00  0.00     0.023 A 
ENDBRANCH  14  15
ENDBRANCH  11  14
ENDBRANCH   1  11
TORSDOF 3
ENDMDL
