MODEL 1
REMARK VINA RESULT:      83.7      0.000      0.000
REMARK  5 active torsions:
REMARK  status: ('A' for Active; 'I' for Inactive)
REMARK    1  A    between atoms: C_7  and  C_2 
REMARK    2  A    between atoms: C_9  and  C_4 
REMARK    3  A    between atoms: C_16  and  C_7 
REMARK    4  A    between atoms: N_8  and  C_9 
REMARK    5  A    between atoms: C_23  and  C_14 
ROOT
ATOM      1  C   UNL d   1      58.732  49.626  51.132  0.00  0.00     0.108 A 
ATOM      2  C   UNL d   1      60.070  49.578  51.011  0.00  0.00     0.139 A 
ATOM      3  O   UNL d   1      59.354  49.598  50.582  0.00  0.00    -0.304 OA
ATOM      4  C   UNL d   1      57.923  49.653  51.035  0.00  0.00     0.079 A 
ATOM      5  C   UNL d   1      59.059  49.623  51.892  0.00  0.00     0.064 A 
ATOM      6  C   UNL d   1      59.884  49.594  51.814  0.00  0.00     0.220 A 
ATOM      7  C   UNL d   1      58.567  49.648  52.553  0.00  0.00     0.009 A 
ATOM      8  C   UNL d   1      57.434  49.677  51.696  0.00  0.00     0.199 A 
ATOM      9  O   UNL d   1      60.426  49.582  52.440  0.00  0.00    -0.284 OA
ATOM     10  C   UNL d   1      57.755  49.674  52.452  0.00  0.00     0.042 A 
ATOM     11  O   UNL d   1      56.616  49.704  51.597  0.00  0.00    -0.286 OA
ENDROOT
BRANCH   2  12
ATOM     12  C   UNL d   1      60.829  49.548  50.685  0.00  0.00     0.028 C 
BRANCH  12  13
ATOM     13  C   UNL d   1      61.146  48.827  50.441  0.00  0.00     0.002 A 
ATOM     14  C   UNL d   1      61.661  48.797  49.795  0.00  0.00     0.000 A 
ATOM     15  C   UNL d   1      61.978  48.076  49.551  0.00  0.00     0.000 A 
ATOM     16  C   UNL d   1      61.781  47.384  49.955  0.00  0.00     0.000 A 
ATOM     17  C   UNL d   1      61.267  47.413  50.601  0.00  0.00     0.000 A 
ATOM     18  C   UNL d   1      60.949  48.135  50.845  0.00  0.00     0.000 A 
BRANCH  16  19
ATOM     19  C   UNL d   1      62.098  46.662  49.711  0.00  0.00     0.000 C 
ATOM     20  C   UNL d   1      62.887  46.617  49.468  0.00  0.00     0.000 C 
ATOM     21  C   UNL d   1      61.626  45.981  49.710  0.00  0.00     0.000 C 
ENDBRANCH  16  19
ENDBRANCH  12  13
ENDBRANCH   2  12
BRANCH   4  22
ATOM     22  C   UNL d   1      57.592  49.656  50.287  0.00  0.00     0.086 C 
BRANCH  22  23
ATOM     23  N   UNL d   1      57.200  49.032  49.920  0.00  0.00    -0.300 N 
ATOM     24  C   UNL d   1      56.786  49.162  49.226  0.00  0.00     0.100 A 
ATOM     25  C   UNL d   1      56.394  48.547  48.856  0.00  0.00     0.100 A 
ATOM     26  N   UNL d   1      56.423  47.799  49.191  0.00  0.00    -0.299 N 
ATOM     27  C   UNL d   1      56.837  47.670  49.885  0.00  0.00     0.100 A 
ATOM     28  C   UNL d   1      56.033  47.175  48.828  0.00  0.00     0.100 C 
ATOM     29  C   UNL d   1      57.224  48.293  50.244  0.00  0.00     0.100 A 
ENDBRANCH  22  23
ENDBRANCH   4  22
TORSDOF 5
ENDMDL
