MODEL 1
REMARK VINA RESULT:      -7.9      0.000      0.000
REMARK  5 active torsions:
REMARK  status: ('A' for Active; 'I' for Inactive)
REMARK    1  A    between atoms: N_2  and  S_1 
REMARK    2  A    between atoms: C_4  and  S_1 
REMARK    3  A    between atoms: C_3  and  N_2 
REMARK    4  A    between atoms: N_7  and  C_3 
REMARK    5  A    between atoms: C_12  and  N_7 
ROOT
ATOM      1  S   UNL d   1      51.395  33.917  52.941  0.00  0.00     0.287 S 
ATOM      2  O   UNL d   1      50.970  33.345  53.363  0.00  0.00    -0.198 OA
ATOM      3  O   UNL d   1      51.808  34.497  52.511  0.00  0.00    -0.198 OA
ENDROOT
BRANCH   1   4
ATOM      4  N   UNL d   1      52.104  33.646  53.271  0.00  0.00    -0.128 NA
BRANCH   4   5
ATOM      5  C   UNL d   1      52.576  33.009  53.502  0.00  0.00     0.232 C 
ATOM      6  S   UNL d   1      52.752  32.408  52.968  0.00  0.00    -0.036 SA
BRANCH   5   7
ATOM      7  N   UNL d   1      52.868  32.980  54.270  0.00  0.00    -0.217 NA
BRANCH   7   8
ATOM      8  C   UNL d   1      53.658  33.166  54.412  0.00  0.00     0.084 A 
ATOM      9  C   UNL d   1      53.848  33.681  55.019  0.00  0.00     0.019 A 
ATOM     10  C   UNL d   1      54.632  33.869  55.165  0.00  0.00     0.002 A 
ATOM     11  C   UNL d   1      55.226  33.539  54.701  0.00  0.00     0.000 A 
ATOM     12  C   UNL d   1      55.022  33.021  54.092  0.00  0.00     0.002 A 
ATOM     13  C   UNL d   1      54.249  32.837  53.950  0.00  0.00     0.019 A 
ENDBRANCH   7   8
ENDBRANCH   5   7
ENDBRANCH   4   5
ENDBRANCH   1   4
BRANCH   1  14
ATOM     14  C   UNL d   1      50.679  34.192  52.608  0.00  0.00     0.105 A 
ATOM     15  C   UNL d   1      50.132  34.590  53.083  0.00  0.00     0.015 A 
ATOM     16  C   UNL d   1      49.426  34.861  52.759  0.00  0.00     0.030 A 
ATOM     17  C   UNL d   1      49.249  34.742  51.948  0.00  0.00     0.140 A 
ATOM     18  C   UNL d   1      49.806  34.340  51.477  0.00  0.00     0.030 A 
ATOM     19  F   UNL d   1      48.547  35.014  51.634  0.00  0.00    -0.204 F 
ATOM     20  C   UNL d   1      50.516  34.066  51.804  0.00  0.00     0.015 A 
ENDBRANCH   1  14
TORSDOF 5
ENDMDL
MODEL 2
REMARK VINA RESULT:      -7.5      2.603      3.524
REMARK  5 active torsions:
REMARK  status: ('A' for Active; 'I' for Inactive)
REMARK    1  A    between atoms: N_2  and  S_1 
REMARK    2  A    between atoms: C_4  and  S_1 
REMARK    3  A    between atoms: C_3  and  N_2 
REMARK    4  A    between atoms: N_7  and  C_3 
REMARK    5  A    between atoms: C_12  and  N_7 
ROOT
ATOM      1  S   UNL d   1      53.222  33.246  53.926  0.00  0.00     0.287 S 
ATOM      2  O   UNL d   1      52.449  33.140  54.203  0.00  0.00    -0.198 OA
ATOM      3  O   UNL d   1      53.998  33.368  53.652  0.00  0.00    -0.198 OA
ENDROOT
BRANCH   1   4
ATOM      4  N   UNL d   1      53.275  32.441  53.740  0.00  0.00    -0.128 NA
BRANCH   4   5
ATOM      5  C   UNL d   1      53.106  31.826  53.214  0.00  0.00     0.232 C 
ATOM      6  S   UNL d   1      52.431  31.855  52.745  0.00  0.00    -0.036 SA
BRANCH   5   7
ATOM      7  N   UNL d   1      53.619  31.186  53.165  0.00  0.00    -0.217 NA
BRANCH   7   8
ATOM      8  C   UNL d   1      53.371  30.445  53.429  0.00  0.00     0.084 A 
ATOM      9  C   UNL d   1      53.691  30.134  54.116  0.00  0.00     0.019 A 
ATOM     10  C   UNL d   1      53.449  29.398  54.384  0.00  0.00     0.002 A 
ATOM     11  C   UNL d   1      52.885  28.974  53.961  0.00  0.00     0.000 A 
ATOM     12  C   UNL d   1      52.569  29.298  53.271  0.00  0.00     0.002 A 
ATOM     13  C   UNL d   1      52.809  30.023  53.009  0.00  0.00     0.019 A 
ENDBRANCH   7   8
ENDBRANCH   5   7
ENDBRANCH   4   5
ENDBRANCH   1   4
BRANCH   1  14
ATOM     14  C   UNL d   1      53.170  34.058  54.114  0.00  0.00     0.105 A 
ATOM     15  C   UNL d   1      53.360  34.316  54.877  0.00  0.00     0.015 A 
ATOM     16  C   UNL d   1      53.309  35.115  55.066  0.00  0.00     0.030 A 
ATOM     17  C   UNL d   1      53.066  35.679  54.495  0.00  0.00     0.140 A 
ATOM     18  C   UNL d   1      52.877  35.411  53.730  0.00  0.00     0.030 A 
ATOM     19  F   UNL d   1      53.019  36.470  54.690  0.00  0.00    -0.204 F 
ATOM     20  C   UNL d   1      52.928  34.607  53.540  0.00  0.00     0.015 A 
ENDBRANCH   1  14
TORSDOF 5
ENDMDL
MODEL 3
REMARK VINA RESULT:      -7.4      2.007      4.657
REMARK  5 active torsions:
REMARK  status: ('A' for Active; 'I' for Inactive)
REMARK    1  A    between atoms: N_2  and  S_1 
REMARK    2  A    between atoms: C_4  and  S_1 
REMARK    3  A    between atoms: C_3  and  N_2 
REMARK    4  A    between atoms: N_7  and  C_3 
REMARK    5  A    between atoms: C_12  and  N_7 
ROOT
ATOM      1  S   UNL d   1      52.518  34.069  53.746  0.00  0.00     0.287 S 
ATOM      2  O   UNL d   1      52.221  33.320  53.940  0.00  0.00    -0.198 OA
ATOM      3  O   UNL d   1      52.831  34.817  53.559  0.00  0.00    -0.198 OA
ENDROOT
BRANCH   1   4
ATOM      4  N   UNL d   1      51.806  34.265  53.373  0.00  0.00    -0.128 NA
BRANCH   4   5
ATOM      5  C   UNL d   1      51.269  34.127  52.760  0.00  0.00     0.232 C 
ATOM      6  S   UNL d   1      51.511  34.186  51.976  0.00  0.00    -0.036 SA
BRANCH   5   7
ATOM      7  N   UNL d   1      50.492  33.931  52.941  0.00  0.00    -0.217 NA
BRANCH   7   8
ATOM      8  C   UNL d   1      49.876  34.389  52.641  0.00  0.00     0.084 A 
ATOM      9  C   UNL d   1      49.515  34.944  53.123  0.00  0.00     0.019 A 
ATOM     10  C   UNL d   1      48.902  35.403  52.831  0.00  0.00     0.002 A 
ATOM     11  C   UNL d   1      48.652  35.305  52.053  0.00  0.00     0.000 A 
ATOM     12  C   UNL d   1      49.024  34.742  51.577  0.00  0.00     0.002 A 
ATOM     13  C   UNL d   1      49.628  34.291  51.867  0.00  0.00     0.019 A 
ENDBRANCH   7   8
ENDBRANCH   5   7
ENDBRANCH   4   5
ENDBRANCH   1   4
BRANCH   1  14
ATOM     14  C   UNL d   1      53.238  33.871  54.123  0.00  0.00     0.105 A 
ATOM     15  C   UNL d   1      53.471  34.283  54.801  0.00  0.00     0.015 A 
ATOM     16  C   UNL d   1      54.179  34.091  55.175  0.00  0.00     0.030 A 
ATOM     17  C   UNL d   1      54.673  33.481  54.878  0.00  0.00     0.140 A 
ATOM     18  C   UNL d   1      54.429  33.073  54.195  0.00  0.00     0.030 A 
ATOM     19  F   UNL d   1      55.373  33.298  55.255  0.00  0.00    -0.204 F 
ATOM     20  C   UNL d   1      53.717  33.266  53.819  0.00  0.00     0.015 A 
ENDBRANCH   1  14
TORSDOF 5
ENDMDL
MODEL 4
REMARK VINA RESULT:      -7.4      1.223      1.681
REMARK  5 active torsions:
REMARK  status: ('A' for Active; 'I' for Inactive)
REMARK    1  A    between atoms: N_2  and  S_1 
REMARK    2  A    between atoms: C_4  and  S_1 
REMARK    3  A    between atoms: C_3  and  N_2 
REMARK    4  A    between atoms: N_7  and  C_3 
REMARK    5  A    between atoms: C_12  and  N_7 
ROOT
ATOM      1  S   UNL d   1      50.705  33.974  52.732  0.00  0.00     0.287 S 
ATOM      2  O   UNL d   1      51.090  34.294  52.073  0.00  0.00    -0.198 OA
ATOM      3  O   UNL d   1      50.303  33.662  53.390  0.00  0.00    -0.198 OA
ENDROOT
BRANCH   1   4
ATOM      4  N   UNL d   1      51.385  33.551  52.936  0.00  0.00    -0.128 NA
BRANCH   4   5
ATOM      5  C   UNL d   1      52.208  33.532  53.011  0.00  0.00     0.232 C 
ATOM      6  S   UNL d   1      52.593  34.072  53.498  0.00  0.00    -0.036 SA
BRANCH   5   7
ATOM      7  N   UNL d   1      52.638  32.968  52.595  0.00  0.00    -0.217 NA
BRANCH   7   8
ATOM      8  C   UNL d   1      53.023  32.366  53.004  0.00  0.00     0.084 A 
ATOM      9  C   UNL d   1      52.756  31.595  52.934  0.00  0.00     0.019 A 
ATOM     10  C   UNL d   1      53.135  30.992  53.338  0.00  0.00     0.002 A 
ATOM     11  C   UNL d   1      53.784  31.163  53.815  0.00  0.00     0.000 A 
ATOM     12  C   UNL d   1      54.044  31.944  53.878  0.00  0.00     0.002 A 
ATOM     13  C   UNL d   1      53.669  32.537  53.479  0.00  0.00     0.019 A 
ENDBRANCH   7   8
ENDBRANCH   5   7
ENDBRANCH   4   5
ENDBRANCH   1   4
BRANCH   1  14
ATOM     14  C   UNL d   1      50.016  34.402  52.526  0.00  0.00     0.105 A 
ATOM     15  C   UNL d   1      49.663  34.902  53.082  0.00  0.00     0.015 A 
ATOM     16  C   UNL d   1      48.985  35.324  52.883  0.00  0.00     0.030 A 
ATOM     17  C   UNL d   1      48.642  35.256  52.121  0.00  0.00     0.140 A 
ATOM     18  C   UNL d   1      49.004  34.750  51.568  0.00  0.00     0.030 A 
ATOM     19  F   UNL d   1      47.970  35.678  51.932  0.00  0.00    -0.204 F 
ATOM     20  C   UNL d   1      49.686  34.325  51.768  0.00  0.00     0.015 A 
ENDBRANCH   1  14
TORSDOF 5
ENDMDL
MODEL 5
REMARK VINA RESULT:      -7.2      2.488      4.663
REMARK  5 active torsions:
REMARK  status: ('A' for Active; 'I' for Inactive)
REMARK    1  A    between atoms: N_2  and  S_1 
REMARK    2  A    between atoms: C_4  and  S_1 
REMARK    3  A    between atoms: C_3  and  N_2 
REMARK    4  A    between atoms: N_7  and  C_3 
REMARK    5  A    between atoms: C_12  and  N_7 
ROOT
ATOM      1  S   UNL d   1      52.521  32.039  52.954  0.00  0.00     0.287 S 
ATOM      2  O   UNL d   1      53.244  32.286  52.636  0.00  0.00    -0.198 OA
ATOM      3  O   UNL d   1      51.801  31.776  53.278  0.00  0.00    -0.198 OA
ENDROOT
BRANCH   1   4
ATOM      4  N   UNL d   1      52.169  32.754  52.733  0.00  0.00    -0.128 NA
BRANCH   4   5
ATOM      5  C   UNL d   1      52.048  33.558  52.885  0.00  0.00     0.232 C 
ATOM      6  S   UNL d   1      52.220  33.870  53.627  0.00  0.00    -0.036 SA
BRANCH   5   7
ATOM      7  N   UNL d   1      51.754  34.041  52.289  0.00  0.00    -0.217 NA
BRANCH   7   8
ATOM      8  C   UNL d   1      50.962  34.266  52.301  0.00  0.00     0.084 A 
ATOM      9  C   UNL d   1      50.502  34.162  51.631  0.00  0.00     0.019 A 
ATOM     10  C   UNL d   1      49.713  34.385  51.637  0.00  0.00     0.002 A 
ATOM     11  C   UNL d   1      49.385  34.712  52.317  0.00  0.00     0.000 A 
ATOM     12  C   UNL d   1      49.859  34.812  52.987  0.00  0.00     0.002 A 
ATOM     13  C   UNL d   1      50.635  34.592  52.978  0.00  0.00     0.019 A 
ENDBRANCH   7   8
ENDBRANCH   5   7
ENDBRANCH   4   5
ENDBRANCH   1   4
BRANCH   1  14
ATOM     14  C   UNL d   1      52.875  31.316  53.178  0.00  0.00     0.105 A 
ATOM     15  C   UNL d   1      52.525  30.601  52.953  0.00  0.00     0.015 A 
ATOM     16  C   UNL d   1      52.871  29.887  53.172  0.00  0.00     0.030 A 
ATOM     17  C   UNL d   1      53.578  29.869  53.622  0.00  0.00     0.140 A 
ATOM     18  C   UNL d   1      53.923  30.594  53.845  0.00  0.00     0.030 A 
ATOM     19  F   UNL d   1      53.914  29.157  53.835  0.00  0.00    -0.204 F 
ATOM     20  C   UNL d   1      53.575  31.312  53.625  0.00  0.00     0.015 A 
ENDBRANCH   1  14
TORSDOF 5
ENDMDL
MODEL 6
REMARK VINA RESULT:      -6.9      3.064      4.341
REMARK  5 active torsions:
REMARK  status: ('A' for Active; 'I' for Inactive)
REMARK    1  A    between atoms: N_2  and  S_1 
REMARK    2  A    between atoms: C_4  and  S_1 
REMARK    3  A    between atoms: C_3  and  N_2 
REMARK    4  A    between atoms: N_7  and  C_3 
REMARK    5  A    between atoms: C_12  and  N_7 
ROOT
ATOM      1  S   UNL d   1      53.097  31.274  53.308  0.00  0.00     0.287 S 
ATOM      2  O   UNL d   1      52.299  31.125  53.144  0.00  0.00    -0.198 OA
ATOM      3  O   UNL d   1      53.900  31.407  53.480  0.00  0.00    -0.198 OA
ENDROOT
BRANCH   1   4
ATOM      4  N   UNL d   1      53.031  32.033  52.988  0.00  0.00    -0.128 NA
BRANCH   4   5
ATOM      5  C   UNL d   1      52.780  32.816  53.075  0.00  0.00     0.232 C 
ATOM      6  S   UNL d   1      51.976  32.993  53.104  0.00  0.00    -0.036 SA
BRANCH   5   7
ATOM      7  N   UNL d   1      53.339  33.415  53.131  0.00  0.00    -0.217 NA
BRANCH   7   8
ATOM      8  C   UNL d   1      53.178  34.080  53.591  0.00  0.00     0.084 A 
ATOM      9  C   UNL d   1      53.481  34.128  54.350  0.00  0.00     0.019 A 
ATOM     10  C   UNL d   1      53.324  34.787  54.812  0.00  0.00     0.002 A 
ATOM     11  C   UNL d   1      52.863  35.398  54.511  0.00  0.00     0.000 A 
ATOM     12  C   UNL d   1      52.564  35.338  53.744  0.00  0.00     0.002 A 
ATOM     13  C   UNL d   1      52.719  34.689  53.291  0.00  0.00     0.019 A 
ENDBRANCH   7   8
ENDBRANCH   5   7
ENDBRANCH   4   5
ENDBRANCH   1   4
BRANCH   1  14
ATOM     14  C   UNL d   1      53.165  30.505  53.631  0.00  0.00     0.105 A 
ATOM     15  C   UNL d   1      53.129  29.846  53.133  0.00  0.00     0.015 A 
ATOM     16  C   UNL d   1      53.196  29.089  53.448  0.00  0.00     0.030 A 
ATOM     17  C   UNL d   1      53.299  28.971  54.271  0.00  0.00     0.140 A 
ATOM     18  C   UNL d   1      53.333  29.640  54.765  0.00  0.00     0.030 A 
ATOM     19  F   UNL d   1      53.364  28.216  54.575  0.00  0.00    -0.204 F 
ATOM     20  C   UNL d   1      53.267  30.402  54.449  0.00  0.00     0.015 A 
ENDBRANCH   1  14
TORSDOF 5
ENDMDL
