MODEL 1
REMARK VINA RESULT:      -2.2      0.000      0.000
REMARK  4 active torsions:
REMARK  status: ('A' for Active; 'I' for Inactive)
REMARK       I    between atoms: C_3  and  N_1 
REMARK    1  A    between atoms: C_7  and  C_3 
REMARK    2  A    between atoms: C_9  and  C_4 
REMARK    3  A    between atoms: C_12  and  C_5 
REMARK    4  A    between atoms: O_20  and  C_17 
ROOT
ATOM      1  N   UNL d   1      32.782  19.736 -23.433  0.00  0.00    -0.194 N 
ATOM      2  N   UNL d   1      32.858  20.476 -23.090  0.00  0.00    -0.163 NA
ATOM      3  C   UNL d   1      32.798  19.568 -24.263  0.00  0.00     0.286 C 
ATOM      4  C   UNL d   1      32.687  19.189 -22.824  0.00  0.00     0.088 A 
ATOM      5  C   UNL d   1      32.812  20.398 -22.278  0.00  0.00     0.103 A 
ATOM      6  C   UNL d   1      32.706  19.599 -22.116  0.00  0.00     0.040 A 
ATOM      7  O   UNL d   1      32.900  20.200 -24.784  0.00  0.00    -0.265 OA
ENDROOT
BRANCH   4   8
ATOM      8  C   UNL d   1      32.594  18.376 -22.992  0.00  0.00     0.018 A 
ATOM      9  C   UNL d   1      33.240  17.845 -22.915  0.00  0.00     0.004 A 
ATOM     10  C   UNL d   1      33.130  17.044 -23.085  0.00  0.00     0.024 A 
ATOM     11  C   UNL d   1      32.392  16.752 -23.332  0.00  0.00     0.094 A 
ATOM     12  C   UNL d   1      31.746  17.283 -23.409  0.00  0.00     0.024 A 
ATOM     13  C   UNL d   1      31.856  18.091 -23.238  0.00  0.00     0.004 A 
BRANCH  11  14
ATOM     14  O   UNL d   1      32.297  15.939 -23.500  0.00  0.00    -0.328 OA
ATOM     15  C   UNL d   1      31.770  15.481 -23.032  0.00  0.00     0.181 C 
ENDBRANCH  11  14
ENDBRANCH   4   8
BRANCH   3  16
ATOM     16  C   UNL d   1      32.717  18.807 -24.544  0.00  0.00     0.087 A 
ATOM     17  S   UNL d   1      33.239  18.155 -24.601  0.00  0.00    -0.082 SA
ATOM     18  C   UNL d   1      32.832  17.535 -24.935  0.00  0.00     0.036 A 
ATOM     19  C   UNL d   1      32.065  17.771 -25.092  0.00  0.00     0.008 A 
ATOM     20  C   UNL d   1      31.990  18.546 -24.856  0.00  0.00     0.012 A 
ENDBRANCH   3  16
BRANCH   5  21
ATOM     21  C   UNL d   1      32.853  20.952 -21.669  0.00  0.00     0.019 A 
ATOM     22  C   UNL d   1      32.645  21.739 -21.823  0.00  0.00     0.002 A 
ATOM     23  C   UNL d   1      32.688  22.286 -21.213  0.00  0.00     0.000 A 
ATOM     24  C   UNL d   1      32.931  22.066 -20.460  0.00  0.00     0.000 A 
ATOM     25  C   UNL d   1      33.139  21.278 -20.306  0.00  0.00     0.000 A 
ATOM     26  C   UNL d   1      33.096  20.728 -20.918  0.00  0.00     0.002 A 
ENDBRANCH   5  21
TORSDOF 4
ENDMDL
MODEL 2
REMARK VINA RESULT:      -2.0      2.023      4.871
REMARK  4 active torsions:
REMARK  status: ('A' for Active; 'I' for Inactive)
REMARK       I    between atoms: C_3  and  N_1 
REMARK    1  A    between atoms: C_7  and  C_3 
REMARK    2  A    between atoms: C_9  and  C_4 
REMARK    3  A    between atoms: C_12  and  C_5 
REMARK    4  A    between atoms: O_20  and  C_17 
ROOT
ATOM      1  N   UNL d   1      32.855  21.333 -22.632  0.00  0.00    -0.194 N 
ATOM      2  N   UNL d   1      32.977  20.721 -23.162  0.00  0.00    -0.163 NA
ATOM      3  C   UNL d   1      32.851  22.160 -22.819  0.00  0.00     0.286 C 
ATOM      4  C   UNL d   1      32.737  20.999 -21.889  0.00  0.00     0.088 A 
ATOM      5  C   UNL d   1      32.937  20.010 -22.760  0.00  0.00     0.103 A 
ATOM      6  C   UNL d   1      32.789  20.186 -21.971  0.00  0.00     0.040 A 
ATOM      7  O   UNL d   1      32.981  22.380 -23.603  0.00  0.00    -0.265 OA
ENDROOT
BRANCH   4   8
ATOM      8  C   UNL d   1      32.597  21.481 -21.221  0.00  0.00     0.018 A 
ATOM      9  C   UNL d   1      31.814  21.686 -20.997  0.00  0.00     0.004 A 
ATOM     10  C   UNL d   1      31.693  22.164 -20.334  0.00  0.00     0.024 A 
ATOM     11  C   UNL d   1      32.332  22.446 -19.883  0.00  0.00     0.094 A 
ATOM     12  C   UNL d   1      33.115  22.241 -20.107  0.00  0.00     0.024 A 
ATOM     13  C   UNL d   1      33.237  21.758 -20.776  0.00  0.00     0.004 A 
BRANCH  11  14
ATOM     14  O   UNL d   1      32.192  22.929 -19.215  0.00  0.00    -0.328 OA
ATOM     15  C   UNL d   1      32.685  22.847 -18.539  0.00  0.00     0.181 C 
ENDBRANCH  11  14
ENDBRANCH   4   8
BRANCH   3  16
ATOM     16  C   UNL d   1      32.724  22.724 -22.244  0.00  0.00     0.087 A 
ATOM     17  S   UNL d   1      33.164  22.978 -21.578  0.00  0.00    -0.082 SA
ATOM     18  C   UNL d   1      32.744  23.569 -21.210  0.00  0.00     0.036 A 
ATOM     19  C   UNL d   1      32.048  23.700 -21.620  0.00  0.00     0.008 A 
ATOM     20  C   UNL d   1      32.031  23.187 -22.252  0.00  0.00     0.012 A 
ENDBRANCH   3  16
BRANCH   5  21
ATOM     21  C   UNL d   1      33.017  19.230 -23.013  0.00  0.00     0.019 A 
ATOM     22  C   UNL d   1      32.956  18.616 -22.459  0.00  0.00     0.002 A 
ATOM     23  C   UNL d   1      33.036  17.842 -22.716  0.00  0.00     0.000 A 
ATOM     24  C   UNL d   1      33.175  17.668 -23.507  0.00  0.00     0.000 A 
ATOM     25  C   UNL d   1      33.237  18.282 -24.061  0.00  0.00     0.000 A 
ATOM     26  C   UNL d   1      33.156  19.060 -23.804  0.00  0.00     0.002 A 
ENDBRANCH   5  21
TORSDOF 4
ENDMDL
