MODEL 1
REMARK VINA RESULT:      11.8      0.000      0.000
REMARK  3 active torsions:
REMARK  status: ('A' for Active; 'I' for Inactive)
REMARK    1  A    between atoms: S_2  and  C_5 
REMARK    2  A    between atoms: C_7  and  S_2 
REMARK    3  A    between atoms: C_3  and  C_7 
ROOT
ATOM      1  C   UNL d   1     -58.564 -98.756 -44.007  0.00  0.00     0.087 A 
ATOM      2  N   UNL d   1     -58.380 -98.756 -43.201  0.00  0.00    -0.244 NA
ATOM      3  C   UNL d   1     -57.965 -98.755 -44.571  0.00  0.00     0.043 A 
ATOM      4  C   UNL d   1     -59.357 -98.756 -44.238  0.00  0.00     0.018 A 
ATOM      5  C   UNL d   1     -58.938 -98.755 -45.608  0.00  0.00     0.001 A 
ATOM      6  C   UNL d   1     -58.987 -98.756 -42.639  0.00  0.00     0.099 A 
ATOM      7  C   UNL d   1     -58.149 -98.755 -45.378  0.00  0.00     0.008 A 
ATOM      8  C   UNL d   1     -59.541 -98.756 -45.045  0.00  0.00     0.002 A 
ATOM      9  C   UNL d   1     -59.960 -98.756 -43.689  0.00  0.00     0.003 A 
ATOM     10  C   UNL d   1     -59.779 -98.756 -42.884  0.00  0.00     0.021 A 
ENDROOT
BRANCH   3  11
ATOM     11  S   UNL d   1     -57.173 -98.755 -44.327  0.00  0.00    -0.101 SA
BRANCH  11  12
ATOM     12  C   UNL d   1     -56.436 -98.821 -44.713  0.00  0.00     0.160 C 
BRANCH  12  13
ATOM     13  C   UNL d   1     -55.742 -99.253 -44.581  0.00  0.00     0.197 C 
ATOM     14  O   UNL d   1     -55.023 -98.859 -44.467  0.00  0.00    -0.647 OA
ATOM     15  O   UNL d   1     -55.766-100.080 -44.562  0.00  0.00    -0.647 OA
ENDBRANCH  12  13
ENDBRANCH  11  12
ENDBRANCH   3  11
TORSDOF 3
ENDMDL
MODEL 2
REMARK VINA RESULT:      13.7      0.759      1.607
REMARK  3 active torsions:
REMARK  status: ('A' for Active; 'I' for Inactive)
REMARK    1  A    between atoms: S_2  and  C_5 
REMARK    2  A    between atoms: C_7  and  S_2 
REMARK    3  A    between atoms: C_3  and  C_7 
ROOT
ATOM      1  C   UNL d   1     -58.495 -98.756 -44.574  0.00  0.00     0.087 A 
ATOM      2  N   UNL d   1     -58.447 -98.756 -45.399  0.00  0.00    -0.244 NA
ATOM      3  C   UNL d   1     -57.811 -98.756 -44.117  0.00  0.00     0.043 A 
ATOM      4  C   UNL d   1     -59.238 -98.757 -44.215  0.00  0.00     0.018 A 
ATOM      5  C   UNL d   1     -58.598 -98.757 -42.934  0.00  0.00     0.001 A 
ATOM      6  C   UNL d   1     -59.139 -98.757 -45.853  0.00  0.00     0.099 A 
ATOM      7  C   UNL d   1     -57.859 -98.756 -43.291  0.00  0.00     0.008 A 
ATOM      8  C   UNL d   1     -59.286 -98.757 -43.389  0.00  0.00     0.002 A 
ATOM      9  C   UNL d   1     -59.924 -98.758 -44.657  0.00  0.00     0.003 A 
ATOM     10  C   UNL d   1     -59.880 -98.758 -45.480  0.00  0.00     0.021 A 
ENDROOT
BRANCH   3  11
ATOM     11  S   UNL d   1     -57.070 -98.755 -44.489  0.00  0.00    -0.101 SA
BRANCH  11  12
ATOM     12  C   UNL d   1     -56.280 -98.835 -44.232  0.00  0.00     0.160 C 
BRANCH  12  13
ATOM     13  C   UNL d   1     -55.598 -99.193 -44.538  0.00  0.00     0.197 C 
ATOM     14  O   UNL d   1     -55.078 -98.758 -45.011  0.00  0.00    -0.647 OA
ATOM     15  O   UNL d   1     -55.437 -99.987 -44.370  0.00  0.00    -0.647 OA
ENDBRANCH  12  13
ENDBRANCH  11  12
ENDBRANCH   3  11
TORSDOF 3
ENDMDL
