MODEL 1
REMARK VINA RESULT:      62.8      0.000      0.000
REMARK  4 active torsions:
REMARK  status: ('A' for Active; 'I' for Inactive)
REMARK    1  A    between atoms: C_3  and  C_1 
REMARK    2  A    between atoms: N_10  and  C_3 
REMARK    3  A    between atoms: C_13  and  C_3 
REMARK    4  A    between atoms: C_5  and  N_10 
ROOT
ATOM      1  C   UNL d   1     -51.282  25.225  33.723  0.00  0.00     0.086 C 
ENDROOT
BRANCH   1   2
ATOM      2  C   UNL d   1     -51.896  24.926  34.202  0.00  0.00     0.037 A 
ATOM      3  C   UNL d   1     -52.052  25.168  34.990  0.00  0.00     0.083 A 
ATOM      4  N   UNL d   1     -52.672  24.764  35.257  0.00  0.00    -0.245 NA
ATOM      5  C   UNL d   1     -51.629  25.733  35.413  0.00  0.00     0.021 C 
ATOM      6  C   UNL d   1     -52.940  24.256  34.674  0.00  0.00     0.081 A 
ATOM      7  C   UNL d   1     -52.453  24.358  34.012  0.00  0.00     0.021 A 
ATOM      8  C   UNL d   1     -53.561  23.714  34.656  0.00  0.00     0.019 A 
ATOM      9  C   UNL d   1     -52.593  23.917  33.340  0.00  0.00     0.002 A 
ATOM     10  C   UNL d   1     -53.204  23.378  33.308  0.00  0.00     0.000 A 
ATOM     11  C   UNL d   1     -53.691  23.275  33.970  0.00  0.00     0.002 A 
ENDBRANCH   1   2
BRANCH   1  12
ATOM     12  N   UNL d   1     -51.393  25.917  33.308  0.00  0.00    -0.225 NA
BRANCH  12  13
ATOM     13  C   UNL d   1     -50.881  26.530  33.432  0.00  0.00     0.191 A 
ATOM     14  N   UNL d   1     -50.046  26.579  33.573  0.00  0.00    -0.107 NA
ATOM     15  O   UNL d   1     -49.841  27.367  33.658  0.00  0.00    -0.210 OA
ATOM     16  C   UNL d   1     -50.517  27.827  33.577  0.00  0.00     0.128 A 
ATOM     17  C   UNL d   1     -51.163  27.318  33.438  0.00  0.00     0.068 A 
ATOM     18  C   UNL d   1     -50.511  28.654  33.632  0.00  0.00     0.029 C 
ENDBRANCH  12  13
ENDBRANCH   1  12
BRANCH   1  19
ATOM     19  C   UNL d   1     -50.571  24.810  33.679  0.00  0.00     0.037 A 
ATOM     20  C   UNL d   1     -50.530  24.061  33.955  0.00  0.00     0.100 A 
ATOM     21  N   UNL d   1     -49.828  23.624  33.923  0.00  0.00    -0.242 NA
ATOM     22  C   UNL d   1     -49.153  23.988  33.590  0.00  0.00     0.099 A 
ATOM     23  C   UNL d   1     -49.205  24.763  33.307  0.00  0.00     0.021 A 
ATOM     24  C   UNL d   1     -49.899  25.183  33.344  0.00  0.00     0.005 A 
ENDBRANCH   1  19
TORSDOF 4
ENDMDL
