MODEL 1
REMARK VINA RESULT:      92.8      0.000      0.000
REMARK  6 active torsions:
REMARK  status: ('A' for Active; 'I' for Inactive)
REMARK    1  A    between atoms: N_5  and  S_1 
REMARK    2  A    between atoms: C_6  and  S_1 
REMARK    3  A    between atoms: C_2  and  C_14 
REMARK    4  A    between atoms: C_8  and  N_5 
REMARK    5  A    between atoms: C_7  and  C_8 
REMARK       I    between atoms: N_11  and  C_7 
REMARK    6  A    between atoms: C_20  and  N_11 
ROOT
ATOM      1  C   UNL d   1     -55.470-101.455 -44.171  0.00  0.00     0.298 C 
ATOM      2  N   UNL d   1     -55.825-102.101 -43.813  0.00  0.00    -0.207 NA
ATOM      3  O   UNL d   1     -55.076-100.892 -43.715  0.00  0.00    -0.264 OA
ENDROOT
BRANCH   1   4
ATOM      4  C   UNL d   1     -55.511-101.375 -44.987  0.00  0.00     0.151 C 
ATOM      5  C   UNL d   1     -55.231-101.983 -45.478  0.00  0.00     0.027 C 
BRANCH   4   6
ATOM      6  N   UNL d   1     -55.824-100.701 -45.327  0.00  0.00    -0.153 NA
BRANCH   6   7
ATOM      7  S   UNL d   1     -56.340-100.215 -44.904  0.00  0.00     0.285 S 
ATOM      8  O   UNL d   1     -55.737-100.041 -44.368  0.00  0.00    -0.198 OA
ATOM      9  O   UNL d   1     -56.943-100.388 -45.440  0.00  0.00    -0.198 OA
BRANCH   7  10
ATOM     10  C   UNL d   1     -56.852 -99.731 -44.483  0.00  0.00     0.105 A 
ATOM     11  C   UNL d   1     -56.581 -99.342 -43.814  0.00  0.00     0.012 A 
ATOM     12  C   UNL d   1     -57.098 -98.850 -43.384  0.00  0.00     0.001 A 
ATOM     13  C   UNL d   1     -55.788 -99.442 -43.567  0.00  0.00     0.001 C 
ATOM     14  C   UNL d   1     -57.874 -98.756 -43.630  0.00  0.00     0.000 A 
ATOM     15  C   UNL d   1     -58.146 -99.148 -44.304  0.00  0.00     0.001 A 
ATOM     16  C   UNL d   1     -57.628 -99.636 -44.729  0.00  0.00     0.013 A 
ATOM     17  C   UNL d   1     -58.935 -99.051 -44.554  0.00  0.00     0.000 C 
ENDBRANCH   7  10
ENDBRANCH   6   7
ENDBRANCH   4   6
ENDBRANCH   1   4
BRANCH   2  18
ATOM     18  C   UNL d   1     -55.786-102.186 -42.993  0.00  0.00     0.085 A 
ATOM     19  C   UNL d   1     -55.131-101.897 -42.588  0.00  0.00     0.019 A 
ATOM     20  C   UNL d   1     -55.078-101.975 -41.760  0.00  0.00     0.004 A 
ATOM     21  C   UNL d   1     -55.684-102.343 -41.343  0.00  0.00     0.024 A 
ATOM     22  C   UNL d   1     -56.342-102.634 -41.747  0.00  0.00     0.004 A 
ATOM     23  C   UNL d   1     -56.400-102.559 -42.568  0.00  0.00     0.019 A 
BRANCH  21  24
ATOM     24  C   UNL d   1     -55.619-102.415 -40.518  0.00  0.00     0.111 A 
ATOM     25  N   UNL d   1     -56.271-102.442 -40.021  0.00  0.00    -0.239 NA
ATOM     26  C   UNL d   1     -56.003-102.515 -39.242  0.00  0.00     0.088 A 
ATOM     27  C   UNL d   1     -56.399-102.567 -38.523  0.00  0.00     0.020 A 
ATOM     28  C   UNL d   1     -55.179-102.532 -39.262  0.00  0.00     0.049 A 
ATOM     29  C   UNL d   1     -55.971-102.637 -37.823  0.00  0.00     0.002 A 
ATOM     30  C   UNL d   1     -55.147-102.653 -37.843  0.00  0.00     0.001 A 
ATOM     31  C   UNL d   1     -54.750-102.601 -38.563  0.00  0.00     0.008 A 
ATOM     32  S   UNL d   1     -54.942-102.470 -40.054  0.00  0.00    -0.066 SA
ENDBRANCH  21  24
ENDBRANCH   2  18
TORSDOF 6
ENDMDL
