MODEL 1
REMARK VINA RESULT:      37.1      0.000      0.000
REMARK  5 active torsions:
REMARK  status: ('A' for Active; 'I' for Inactive)
REMARK    1  A    between atoms: C_6  and  C_1 
REMARK    2  A    between atoms: C_7  and  C_6 
REMARK    3  A    between atoms: C_11  and  C_19 
REMARK    4  A    between atoms: O_18  and  C_17 
REMARK    5  A    between atoms: C_19  and  O_18 
ROOT
ATOM      1  C   UNL d   1      57.703  49.704  50.745  0.00  0.00     0.139 A 
ATOM      2  C   UNL d   1      58.789  49.697  51.533  0.00  0.00     0.064 A 
ATOM      3  C   UNL d   1      57.967  49.698  51.532  0.00  0.00     0.220 A 
ATOM      4  C   UNL d   1      59.044  49.702  50.747  0.00  0.00     0.105 A 
ATOM      5  O   UNL d   1      58.368  49.706  50.259  0.00  0.00    -0.304 OA
ATOM      6  C   UNL d   1      59.847  49.702  50.570  0.00  0.00     0.049 A 
ATOM      7  C   UNL d   1      59.338  49.692  52.143  0.00  0.00     0.007 A 
ATOM      8  O   UNL d   1      57.482  49.695  52.198  0.00  0.00    -0.284 OA
ATOM      9  C   UNL d   1      60.394  49.697  51.189  0.00  0.00     0.097 A 
ATOM     10  C   UNL d   1      60.141  49.693  51.971  0.00  0.00     0.025 A 
ENDROOT
BRANCH   1  11
ATOM     11  C   UNL d   1      56.916  49.707  50.490  0.00  0.00     0.034 C 
BRANCH  11  12
ATOM     12  C   UNL d   1      56.625  49.086  50.034  0.00  0.00     0.032 A 
ATOM     13  S   UNL d   1      56.443  48.330  50.300  0.00  0.00    -0.086 SA
ATOM     14  C   UNL d   1      56.169  47.887  49.654  0.00  0.00     0.035 A 
ATOM     15  C   UNL d   1      56.183  48.376  48.989  0.00  0.00     0.007 A 
ATOM     16  C   UNL d   1      56.465  49.121  49.218  0.00  0.00     0.007 A 
ENDBRANCH  11  12
ENDBRANCH   1  11
BRANCH   9  17
ATOM     17  O   UNL d   1      61.200  49.697  51.008  0.00  0.00    -0.319 OA
BRANCH  17  18
ATOM     18  C   UNL d   1      61.632  48.996  51.086  0.00  0.00     0.246 C 
BRANCH  18  19
ATOM     19  C   UNL d   1      61.590  48.428  50.493  0.00  0.00     0.217 C 
ATOM     20  O   UNL d   1      61.494  48.654  49.703  0.00  0.00    -0.645 OA
ATOM     21  O   UNL d   1      61.649  47.575  50.697  0.00  0.00    -0.645 OA
ENDBRANCH  18  19
ENDBRANCH  17  18
ENDBRANCH   9  17
TORSDOF 5
ENDMDL
MODEL 2
REMARK VINA RESULT:      37.5      1.159      1.847
REMARK  5 active torsions:
REMARK  status: ('A' for Active; 'I' for Inactive)
REMARK    1  A    between atoms: C_6  and  C_1 
REMARK    2  A    between atoms: C_7  and  C_6 
REMARK    3  A    between atoms: C_11  and  C_19 
REMARK    4  A    between atoms: O_18  and  C_17 
REMARK    5  A    between atoms: C_19  and  O_18 
ROOT
ATOM      1  C   UNL d   1      58.065  49.707  50.387  0.00  0.00     0.139 A 
ATOM      2  C   UNL d   1      59.390  49.707  50.175  0.00  0.00     0.064 A 
ATOM      3  C   UNL d   1      58.656  49.707  49.805  0.00  0.00     0.220 A 
ATOM      4  C   UNL d   1      59.262  49.706  50.991  0.00  0.00     0.105 A 
ATOM      5  O   UNL d   1      58.439  49.706  51.121  0.00  0.00    -0.304 OA
ATOM      6  C   UNL d   1      59.899  49.706  51.512  0.00  0.00     0.049 A 
ATOM      7  C   UNL d   1      60.155  49.707  49.879  0.00  0.00     0.007 A 
ATOM      8  O   UNL d   1      58.524  49.707  48.992  0.00  0.00    -0.284 OA
ATOM      9  C   UNL d   1      60.667  49.706  51.207  0.00  0.00     0.097 A 
ATOM     10  C   UNL d   1      60.794  49.706  50.395  0.00  0.00     0.025 A 
ENDROOT
BRANCH   1  11
ATOM     11  C   UNL d   1      57.248  49.707  50.259  0.00  0.00     0.034 C 
BRANCH  11  12
ATOM     12  C   UNL d   1      56.833  48.997  50.231  0.00  0.00     0.032 A 
ATOM     13  S   UNL d   1      56.462  48.675  49.572  0.00  0.00    -0.086 SA
ATOM     14  C   UNL d   1      56.112  47.956  49.797  0.00  0.00     0.035 A 
ATOM     15  C   UNL d   1      56.271  47.838  50.597  0.00  0.00     0.007 A 
ATOM     16  C   UNL d   1      56.717  48.479  50.874  0.00  0.00     0.007 A 
ENDBRANCH  11  12
ENDBRANCH   1  11
BRANCH   9  17
ATOM     17  O   UNL d   1      61.304  49.706  51.732  0.00  0.00    -0.319 OA
BRANCH  17  18
ATOM     18  C   UNL d   1      61.170  49.535  52.530  0.00  0.00     0.246 C 
BRANCH  18  19
ATOM     19  C   UNL d   1      61.810  49.480  53.045  0.00  0.00     0.217 C 
ATOM     20  O   UNL d   1      61.726  49.693  53.840  0.00  0.00    -0.645 OA
ATOM     21  O   UNL d   1      62.587  49.194  52.751  0.00  0.00    -0.645 OA
ENDBRANCH  18  19
ENDBRANCH  17  18
ENDBRANCH   9  17
TORSDOF 5
ENDMDL
