MODEL 1
REMARK VINA RESULT:      29.7      0.000      0.000
REMARK  4 active torsions:
REMARK  status: ('A' for Active; 'I' for Inactive)
REMARK    1  A    between atoms: C_6  and  N_1 
REMARK    2  A    between atoms: C_11  and  C_6 
REMARK    3  A    between atoms: O_14  and  C_8 
REMARK    4  A    between atoms: O_15  and  C_9 
ROOT
ATOM      1  C   UNL d   1      14.439  12.905  -3.435  0.00  0.00     0.084 C 
ENDROOT
BRANCH   1   2
ATOM      2  N   UNL d   1      13.834  13.242  -3.884  0.00  0.00    -0.268 N 
ATOM      3  C   UNL d   1      13.265  12.826  -4.319  0.00  0.00     0.296 A 
ATOM      4  S   UNL d   1      12.769  13.385  -4.683  0.00  0.00    -0.025 SA
ATOM      5  O   UNL d   1      13.202  12.006  -4.378  0.00  0.00    -0.259 OA
ATOM      6  C   UNL d   1      13.036  14.137  -4.471  0.00  0.00     0.050 A 
ATOM      7  C   UNL d   1      13.692  14.053  -3.978  0.00  0.00     0.073 A 
ATOM      8  C   UNL d   1      12.769  14.903  -4.659  0.00  0.00     0.008 A 
ATOM      9  C   UNL d   1      14.081  14.714  -3.676  0.00  0.00     0.018 A 
ATOM     10  C   UNL d   1      13.812  15.469  -3.866  0.00  0.00     0.002 A 
ATOM     11  C   UNL d   1      13.153  15.564  -4.360  0.00  0.00     0.001 A 
ENDBRANCH   1   2
BRANCH   1  12
ATOM     12  C   UNL d   1      14.279  12.618  -2.674  0.00  0.00     0.020 A 
ATOM     13  C   UNL d   1      14.731  12.875  -2.045  0.00  0.00     0.028 A 
ATOM     14  C   UNL d   1      14.575  12.592  -1.290  0.00  0.00     0.116 A 
ATOM     15  C   UNL d   1      13.957  12.046  -1.166  0.00  0.00     0.116 A 
ATOM     16  C   UNL d   1      13.506  11.793  -1.810  0.00  0.00     0.026 A 
ATOM     17  C   UNL d   1      13.669  12.082  -2.569  0.00  0.00     0.004 A 
BRANCH  14  18
ATOM     18  O   UNL d   1      15.028  12.848  -0.651  0.00  0.00    -0.326 OA
ATOM     19  C   UNL d   1      15.037  13.652  -0.438  0.00  0.00     0.181 C 
ENDBRANCH  14  18
BRANCH  15  20
ATOM     20  O   UNL d   1      13.825  11.781  -0.397  0.00  0.00    -0.326 OA
ATOM     21  C   UNL d   1      13.086  11.866  -0.052  0.00  0.00     0.181 C 
ENDBRANCH  15  20
ENDBRANCH   1  12
TORSDOF 4
ENDMDL
MODEL 2
REMARK VINA RESULT:      30.1      1.437      1.792
REMARK  4 active torsions:
REMARK  status: ('A' for Active; 'I' for Inactive)
REMARK    1  A    between atoms: C_6  and  N_1 
REMARK    2  A    between atoms: C_11  and  C_6 
REMARK    3  A    between atoms: O_14  and  C_8 
REMARK    4  A    between atoms: O_15  and  C_9 
ROOT
ATOM      1  C   UNL d   1      13.926  13.282  -2.821  0.00  0.00     0.084 C 
ENDROOT
BRANCH   1   2
ATOM      2  N   UNL d   1      13.551  12.763  -3.341  0.00  0.00    -0.268 N 
ATOM      3  C   UNL d   1      13.017  12.166  -3.129  0.00  0.00     0.296 A 
ATOM      4  S   UNL d   1      12.779  11.782  -3.826  0.00  0.00    -0.025 SA
ATOM      5  O   UNL d   1      12.769  11.986  -2.363  0.00  0.00    -0.259 OA
ATOM      6  C   UNL d   1      13.165  12.143  -4.460  0.00  0.00     0.050 A 
ATOM      7  C   UNL d   1      13.642  12.748  -4.165  0.00  0.00     0.073 A 
ATOM      8  C   UNL d   1      13.151  12.005  -5.280  0.00  0.00     0.008 A 
ATOM      9  C   UNL d   1      14.098  13.211  -4.671  0.00  0.00     0.018 A 
ATOM     10  C   UNL d   1      14.080  13.070  -5.483  0.00  0.00     0.002 A 
ATOM     11  C   UNL d   1      13.604  12.464  -5.789  0.00  0.00     0.001 A 
ENDBRANCH   1   2
BRANCH   1  12
ATOM     12  C   UNL d   1      14.267  12.993  -2.122  0.00  0.00     0.020 A 
ATOM     13  C   UNL d   1      14.535  13.521  -1.559  0.00  0.00     0.028 A 
ATOM     14  C   UNL d   1      14.872  13.238  -0.866  0.00  0.00     0.116 A 
ATOM     15  C   UNL d   1      14.941  12.417  -0.737  0.00  0.00     0.116 A 
ATOM     16  C   UNL d   1      14.666  11.893  -1.314  0.00  0.00     0.026 A 
ATOM     17  C   UNL d   1      14.327  12.185  -2.011  0.00  0.00     0.004 A 
BRANCH  14  18
ATOM     18  O   UNL d   1      15.144  13.765  -0.294  0.00  0.00    -0.326 OA
ATOM     19  C   UNL d   1      14.672  14.407  -0.056  0.00  0.00     0.181 C 
ENDBRANCH  14  18
BRANCH  15  20
ATOM     20  O   UNL d   1      15.283  12.166  -0.032  0.00  0.00    -0.326 OA
ATOM     21  C   UNL d   1      16.030  11.827  -0.033  0.00  0.00     0.181 C 
ENDBRANCH  15  20
ENDBRANCH   1  12
TORSDOF 4
ENDMDL
MODEL 3
REMARK VINA RESULT:      31.2      1.602      3.569
REMARK  4 active torsions:
REMARK  status: ('A' for Active; 'I' for Inactive)
REMARK    1  A    between atoms: C_6  and  N_1 
REMARK    2  A    between atoms: C_11  and  C_6 
REMARK    3  A    between atoms: O_14  and  C_8 
REMARK    4  A    between atoms: O_15  and  C_9 
ROOT
ATOM      1  C   UNL d   1      13.844  12.550  -1.383  0.00  0.00     0.084 C 
ENDROOT
BRANCH   1   2
ATOM      2  N   UNL d   1      14.571  12.864  -1.152  0.00  0.00    -0.268 N 
ATOM      3  C   UNL d   1      15.310  12.509  -1.264  0.00  0.00     0.296 A 
ATOM      4  S   UNL d   1      15.885  13.019  -0.947  0.00  0.00    -0.025 SA
ATOM      5  O   UNL d   1      15.449  11.780  -1.626  0.00  0.00    -0.259 OA
ATOM      6  C   UNL d   1      15.497  13.681  -0.643  0.00  0.00     0.050 A 
ATOM      7  C   UNL d   1      14.686  13.589  -0.768  0.00  0.00     0.073 A 
ATOM      8  C   UNL d   1      15.771  14.368  -0.263  0.00  0.00     0.008 A 
ATOM      9  C   UNL d   1      14.154  14.167  -0.521  0.00  0.00     0.018 A 
ATOM     10  C   UNL d   1      14.431  14.846  -0.145  0.00  0.00     0.002 A 
ATOM     11  C   UNL d   1      15.243  14.947  -0.015  0.00  0.00     0.001 A 
ENDBRANCH   1   2
BRANCH   1  12
ATOM     12  C   UNL d   1      13.639  12.527  -2.187  0.00  0.00     0.020 A 
ATOM     13  C   UNL d   1      13.462  13.223  -2.575  0.00  0.00     0.028 A 
ATOM     14  C   UNL d   1      13.259  13.203  -3.371  0.00  0.00     0.116 A 
ATOM     15  C   UNL d   1      13.234  12.477  -3.780  0.00  0.00     0.116 A 
ATOM     16  C   UNL d   1      13.416  11.779  -3.376  0.00  0.00     0.026 A 
ATOM     17  C   UNL d   1      13.620  11.807  -2.574  0.00  0.00     0.004 A 
BRANCH  14  18
ATOM     18  O   UNL d   1      13.079  13.902  -3.769  0.00  0.00    -0.326 OA
ATOM     19  C   UNL d   1      13.559  14.164  -4.395  0.00  0.00     0.181 C 
ENDBRANCH  14  18
BRANCH  15  20
ATOM     20  O   UNL d   1      13.028  12.491  -4.577  0.00  0.00    -0.326 OA
ATOM     21  C   UNL d   1      12.968  11.791  -5.001  0.00  0.00     0.181 C 
ENDBRANCH  15  20
ENDBRANCH   1  12
TORSDOF 4
ENDMDL
