MODEL 1
REMARK VINA RESULT:      -7.5      0.000      0.000
REMARK  5 active torsions:
REMARK  status: ('A' for Active; 'I' for Inactive)
REMARK    1  A    between atoms: C_2  and  C_1 
REMARK    2  A    between atoms: C_7  and  C_2 
REMARK    3  A    between atoms: O_17  and  C_6 
REMARK    4  A    between atoms: C_10  and  C_7 
REMARK    5  A    between atoms: O_18  and  C_8 
ROOT
ATOM      1  C   UNL d   1     -47.918  13.438  23.327  0.00  0.00     0.042 C 
ENDROOT
BRANCH   1   2
ATOM      2  C   UNL d   1     -48.561  13.307  22.835  0.00  0.00     0.199 C 
ATOM      3  O   UNL d   1     -48.603  12.598  22.392  0.00  0.00    -0.286 OA
BRANCH   2   4
ATOM      4  C   UNL d   1     -49.173  13.862  22.766  0.00  0.00     0.078 A 
ATOM      5  C   UNL d   1     -49.966  13.596  22.769  0.00  0.00     0.202 A 
ATOM      6  C   UNL d   1     -50.583  14.138  22.701  0.00  0.00     0.084 A 
ATOM      7  O   UNL d   1     -50.131  12.781  22.842  0.00  0.00    -0.286 OA
ATOM      8  C   UNL d   1     -50.416  14.935  22.630  0.00  0.00     0.199 A 
ATOM      9  C   UNL d   1     -49.622  15.201  22.627  0.00  0.00     0.042 A 
ATOM     10  O   UNL d   1     -51.035  15.485  22.561  0.00  0.00    -0.286 OA
ATOM     11  C   UNL d   1     -49.017  14.664  22.694  0.00  0.00     0.010 A 
ENDBRANCH   2   4
ENDBRANCH   1   2
BRANCH   1  12
ATOM     12  C   UNL d   1     -47.269  12.931  23.326  0.00  0.00     0.005 A 
ATOM     13  C   UNL d   1     -46.576  13.161  22.965  0.00  0.00     0.026 A 
ATOM     14  C   UNL d   1     -45.924  12.641  22.969  0.00  0.00     0.116 A 
ATOM     15  C   UNL d   1     -45.971  11.910  23.328  0.00  0.00     0.116 A 
ATOM     16  C   UNL d   1     -46.687  11.679  23.698  0.00  0.00     0.026 A 
ATOM     17  C   UNL d   1     -47.345  12.194  23.698  0.00  0.00     0.002 A 
BRANCH  14  18
ATOM     18  O   UNL d   1     -45.214  12.871  22.602  0.00  0.00    -0.326 OA
ATOM     19  C   UNL d   1     -45.234  13.273  21.880  0.00  0.00     0.181 C 
ENDBRANCH  14  18
BRANCH  15  20
ATOM     20  O   UNL d   1     -45.335  11.387  23.340  0.00  0.00    -0.326 OA
ATOM     21  C   UNL d   1     -45.408  10.642  23.672  0.00  0.00     0.181 C 
ENDBRANCH  15  20
ENDBRANCH   1  12
TORSDOF 5
ENDMDL
MODEL 2
REMARK VINA RESULT:      -7.3      1.063      4.573
REMARK  5 active torsions:
REMARK  status: ('A' for Active; 'I' for Inactive)
REMARK    1  A    between atoms: C_2  and  C_1 
REMARK    2  A    between atoms: C_7  and  C_2 
REMARK    3  A    between atoms: O_17  and  C_6 
REMARK    4  A    between atoms: C_10  and  C_7 
REMARK    5  A    between atoms: O_18  and  C_8 
ROOT
ATOM      1  C   UNL d   1     -47.261  13.373  22.384  0.00  0.00     0.042 C 
ENDROOT
BRANCH   1   2
ATOM      2  C   UNL d   1     -46.619  13.310  22.889  0.00  0.00     0.199 C 
ATOM      3  O   UNL d   1     -46.711  13.509  23.697  0.00  0.00    -0.286 OA
BRANCH   2   4
ATOM      4  C   UNL d   1     -45.879  13.053  22.619  0.00  0.00     0.078 A 
ATOM      5  C   UNL d   1     -45.544  12.359  22.947  0.00  0.00     0.202 A 
ATOM      6  C   UNL d   1     -44.809  12.094  22.686  0.00  0.00     0.084 A 
ATOM      7  O   UNL d   1     -45.957  11.937  23.538  0.00  0.00    -0.286 OA
ATOM      8  C   UNL d   1     -44.410  12.510  22.108  0.00  0.00     0.199 A 
ATOM      9  C   UNL d   1     -44.745  13.204  21.780  0.00  0.00     0.042 A 
ATOM     10  O   UNL d   1     -43.668  12.246  21.842  0.00  0.00    -0.286 OA
ATOM     11  C   UNL d   1     -45.470  13.463  22.039  0.00  0.00     0.010 A 
ENDBRANCH   2   4
ENDBRANCH   1   2
BRANCH   1  12
ATOM     12  C   UNL d   1     -47.958  13.744  22.620  0.00  0.00     0.005 A 
ATOM     13  C   UNL d   1     -48.605  13.297  22.830  0.00  0.00     0.026 A 
ATOM     14  C   UNL d   1     -49.305  13.681  23.068  0.00  0.00     0.116 A 
ATOM     15  C   UNL d   1     -49.349  14.496  23.094  0.00  0.00     0.116 A 
ATOM     16  C   UNL d   1     -48.680  14.950  22.877  0.00  0.00     0.026 A 
ATOM     17  C   UNL d   1     -47.975  14.573  22.638  0.00  0.00     0.002 A 
BRANCH  14  18
ATOM     18  O   UNL d   1     -49.968  13.229  23.282  0.00  0.00    -0.326 OA
ATOM     19  C   UNL d   1     -50.013  12.431  23.066  0.00  0.00     0.181 C 
ENDBRANCH  14  18
BRANCH  15  20
ATOM     20  O   UNL d   1     -50.035  14.889  23.327  0.00  0.00    -0.326 OA
ATOM     21  C   UNL d   1     -50.045  15.703  23.417  0.00  0.00     0.181 C 
ENDBRANCH  15  20
ENDBRANCH   1  12
TORSDOF 5
ENDMDL
MODEL 3
REMARK VINA RESULT:      -7.2      0.897      1.159
REMARK  5 active torsions:
REMARK  status: ('A' for Active; 'I' for Inactive)
REMARK    1  A    between atoms: C_2  and  C_1 
REMARK    2  A    between atoms: C_7  and  C_2 
REMARK    3  A    between atoms: O_17  and  C_6 
REMARK    4  A    between atoms: C_10  and  C_7 
REMARK    5  A    between atoms: O_18  and  C_8 
ROOT
ATOM      1  C   UNL d   1     -47.869  13.384  22.520  0.00  0.00     0.042 C 
ENDROOT
BRANCH   1   2
ATOM      2  C   UNL d   1     -48.122  14.025  22.963  0.00  0.00     0.199 C 
ATOM      3  O   UNL d   1     -47.621  14.340  23.556  0.00  0.00    -0.286 OA
BRANCH   2   4
ATOM      4  C   UNL d   1     -48.865  14.371  22.839  0.00  0.00     0.078 A 
ATOM      5  C   UNL d   1     -48.909  15.116  22.460  0.00  0.00     0.202 A 
ATOM      6  C   UNL d   1     -49.642  15.470  22.331  0.00  0.00     0.084 A 
ATOM      7  O   UNL d   1     -48.209  15.500  22.215  0.00  0.00    -0.286 OA
ATOM      8  C   UNL d   1     -50.323  15.090  22.573  0.00  0.00     0.199 A 
ATOM      9  C   UNL d   1     -50.279  14.344  22.951  0.00  0.00     0.042 A 
ATOM     10  O   UNL d   1     -51.064  15.443  22.444  0.00  0.00    -0.286 OA
ATOM     11  C   UNL d   1     -49.555  13.999  23.077  0.00  0.00     0.010 A 
ENDBRANCH   2   4
ENDBRANCH   1   2
BRANCH   1  12
ATOM     12  C   UNL d   1     -47.258  12.896  22.783  0.00  0.00     0.005 A 
ATOM     13  C   UNL d   1     -46.499  13.018  22.515  0.00  0.00     0.026 A 
ATOM     14  C   UNL d   1     -45.888  12.520  22.786  0.00  0.00     0.116 A 
ATOM     15  C   UNL d   1     -46.041  11.916  23.313  0.00  0.00     0.116 A 
ATOM     16  C   UNL d   1     -46.824  11.796  23.584  0.00  0.00     0.026 A 
ATOM     17  C   UNL d   1     -47.442  12.290  23.318  0.00  0.00     0.002 A 
BRANCH  14  18
ATOM     18  O   UNL d   1     -45.111  12.640  22.516  0.00  0.00    -0.326 OA
ATOM     19  C   UNL d   1     -44.978  13.025  21.796  0.00  0.00     0.181 C 
ENDBRANCH  14  18
BRANCH  15  20
ATOM     20  O   UNL d   1     -45.447  11.416  23.589  0.00  0.00    -0.326 OA
ATOM     21  C   UNL d   1     -45.586  10.616  23.698  0.00  0.00     0.181 C 
ENDBRANCH  15  20
ENDBRANCH   1  12
TORSDOF 5
ENDMDL
MODEL 4
REMARK VINA RESULT:      -7.2      0.888      4.622
REMARK  5 active torsions:
REMARK  status: ('A' for Active; 'I' for Inactive)
REMARK    1  A    between atoms: C_2  and  C_1 
REMARK    2  A    between atoms: C_7  and  C_2 
REMARK    3  A    between atoms: O_17  and  C_6 
REMARK    4  A    between atoms: C_10  and  C_7 
REMARK    5  A    between atoms: O_18  and  C_8 
ROOT
ATOM      1  C   UNL d   1     -48.115  13.459  22.585  0.00  0.00     0.042 C 
ENDROOT
BRANCH   1   2
ATOM      2  C   UNL d   1     -47.414  13.561  22.998  0.00  0.00     0.199 C 
ATOM      3  O   UNL d   1     -47.225  14.315  23.307  0.00  0.00    -0.286 OA
BRANCH   2   4
ATOM      4  C   UNL d   1     -46.886  12.933  23.116  0.00  0.00     0.078 A 
ATOM      5  C   UNL d   1     -46.135  12.958  22.748  0.00  0.00     0.202 A 
ATOM      6  C   UNL d   1     -45.601  12.339  22.858  0.00  0.00     0.084 A 
ATOM      7  O   UNL d   1     -45.927  13.611  22.270  0.00  0.00    -0.286 OA
ATOM      8  C   UNL d   1     -45.810  11.703  23.326  0.00  0.00     0.199 A 
ATOM      9  C   UNL d   1     -46.561  11.678  23.694  0.00  0.00     0.042 A 
ATOM     10  O   UNL d   1     -45.275  11.078  23.439  0.00  0.00    -0.286 OA
ATOM     11  C   UNL d   1     -47.085  12.289  23.583  0.00  0.00     0.010 A 
ENDBRANCH   2   4
ENDBRANCH   1   2
BRANCH   1  12
ATOM     12  C   UNL d   1     -48.798  13.872  22.793  0.00  0.00     0.005 A 
ATOM     13  C   UNL d   1     -49.431  13.473  23.114  0.00  0.00     0.026 A 
ATOM     14  C   UNL d   1     -50.117  13.898  23.320  0.00  0.00     0.116 A 
ATOM     15  C   UNL d   1     -50.161  14.705  23.206  0.00  0.00     0.116 A 
ATOM     16  C   UNL d   1     -49.507  15.110  22.876  0.00  0.00     0.026 A 
ATOM     17  C   UNL d   1     -48.816  14.691  22.666  0.00  0.00     0.002 A 
BRANCH  14  18
ATOM     18  O   UNL d   1     -50.766  13.496  23.648  0.00  0.00    -0.326 OA
ATOM     19  C   UNL d   1     -50.869  12.689  23.500  0.00  0.00     0.181 C 
ENDBRANCH  14  18
BRANCH  15  20
ATOM     20  O   UNL d   1     -50.833  15.139  23.406  0.00  0.00    -0.326 OA
ATOM     21  C   UNL d   1     -50.776  15.922  23.638  0.00  0.00     0.181 C 
ENDBRANCH  15  20
ENDBRANCH   1  12
TORSDOF 5
ENDMDL
MODEL 5
REMARK VINA RESULT:      -5.9      8.590      9.474
REMARK  5 active torsions:
REMARK  status: ('A' for Active; 'I' for Inactive)
REMARK    1  A    between atoms: C_2  and  C_1 
REMARK    2  A    between atoms: C_7  and  C_2 
REMARK    3  A    between atoms: O_17  and  C_6 
REMARK    4  A    between atoms: C_10  and  C_7 
REMARK    5  A    between atoms: O_18  and  C_8 
ROOT
ATOM      1  C   UNL d   1     -39.544  15.089  19.969  0.00  0.00     0.042 C 
ENDROOT
BRANCH   1   2
ATOM      2  C   UNL d   1     -39.939  14.868  20.653  0.00  0.00     0.199 C 
ATOM      3  O   UNL d   1     -40.678  14.480  20.593  0.00  0.00    -0.286 OA
BRANCH   2   4
ATOM      4  C   UNL d   1     -39.623  15.020  21.403  0.00  0.00     0.078 A 
ATOM      5  C   UNL d   1     -39.276  14.392  21.834  0.00  0.00     0.202 A 
ATOM      6  C   UNL d   1     -38.959  14.531  22.582  0.00  0.00     0.084 A 
ATOM      7  O   UNL d   1     -39.253  13.625  21.505  0.00  0.00    -0.286 OA
ATOM      8  C   UNL d   1     -38.984  15.283  22.899  0.00  0.00     0.199 A 
ATOM      9  C   UNL d   1     -39.330  15.911  22.468  0.00  0.00     0.042 A 
ATOM     10  O   UNL d   1     -38.665  15.427  23.653  0.00  0.00    -0.286 OA
ATOM     11  C   UNL d   1     -39.643  15.771  21.732  0.00  0.00     0.010 A 
ENDBRANCH   2   4
ENDBRANCH   1   2
BRANCH   1  12
ATOM     12  C   UNL d   1     -39.904  15.035  19.230  0.00  0.00     0.005 A 
ATOM     13  C   UNL d   1     -39.743  14.399  18.747  0.00  0.00     0.026 A 
ATOM     14  C   UNL d   1     -40.112  14.352  18.001  0.00  0.00     0.116 A 
ATOM     15  C   UNL d   1     -40.628  14.932  17.750  0.00  0.00     0.116 A 
ATOM     16  C   UNL d   1     -40.789  15.583  18.251  0.00  0.00     0.026 A 
ATOM     17  C   UNL d   1     -40.424  15.638  19.000  0.00  0.00     0.002 A 
BRANCH  14  18
ATOM     18  O   UNL d   1     -39.951  13.705  17.504  0.00  0.00    -0.326 OA
ATOM     19  C   UNL d   1     -39.222  13.318  17.553  0.00  0.00     0.181 C 
ENDBRANCH  14  18
BRANCH  15  20
ATOM     20  O   UNL d   1     -41.000  14.898  17.015  0.00  0.00    -0.326 OA
ATOM     21  C   UNL d   1     -41.409  15.543  16.719  0.00  0.00     0.181 C 
ENDBRANCH  15  20
ENDBRANCH   1  12
TORSDOF 5
ENDMDL
MODEL 6
REMARK VINA RESULT:      -5.7      8.831      9.194
REMARK  5 active torsions:
REMARK  status: ('A' for Active; 'I' for Inactive)
REMARK    1  A    between atoms: C_2  and  C_1 
REMARK    2  A    between atoms: C_7  and  C_2 
REMARK    3  A    between atoms: O_17  and  C_6 
REMARK    4  A    between atoms: C_10  and  C_7 
REMARK    5  A    between atoms: O_18  and  C_8 
ROOT
ATOM      1  C   UNL d   1     -40.071  14.596  20.159  0.00  0.00     0.042 C 
ENDROOT
BRANCH   1   2
ATOM      2  C   UNL d   1     -39.706  14.871  19.478  0.00  0.00     0.199 C 
ATOM      3  O   UNL d   1     -38.888  15.046  19.491  0.00  0.00    -0.286 OA
BRANCH   2   4
ATOM      4  C   UNL d   1     -40.130  14.980  18.774  0.00  0.00     0.078 A 
ATOM      5  C   UNL d   1     -40.140  14.365  18.206  0.00  0.00     0.202 A 
ATOM      6  C   UNL d   1     -40.558  14.462  17.502  0.00  0.00     0.084 A 
ATOM      7  O   UNL d   1     -39.726  13.655  18.353  0.00  0.00    -0.286 OA
ATOM      8  C   UNL d   1     -40.961  15.158  17.363  0.00  0.00     0.199 A 
ATOM      9  C   UNL d   1     -40.951  15.773  17.931  0.00  0.00     0.042 A 
ATOM     10  O   UNL d   1     -41.383  15.259  16.654  0.00  0.00    -0.286 OA
ATOM     11  C   UNL d   1     -40.538  15.675  18.623  0.00  0.00     0.010 A 
ENDBRANCH   2   4
ENDBRANCH   1   2
BRANCH   1  12
ATOM     12  C   UNL d   1     -39.746  14.733  20.903  0.00  0.00     0.005 A 
ATOM     13  C   UNL d   1     -39.334  14.141  21.281  0.00  0.00     0.026 A 
ATOM     14  C   UNL d   1     -39.009  14.289  22.034  0.00  0.00     0.116 A 
ATOM     15  C   UNL d   1     -39.098  15.016  22.395  0.00  0.00     0.116 A 
ATOM     16  C   UNL d   1     -39.522  15.621  22.001  0.00  0.00     0.026 A 
ATOM     17  C   UNL d   1     -39.851  15.481  21.247  0.00  0.00     0.002 A 
BRANCH  14  18
ATOM     18  O   UNL d   1     -38.588  13.688  22.424  0.00  0.00    -0.326 OA
ATOM     19  C   UNL d   1     -38.275  13.055  21.993  0.00  0.00     0.181 C 
ENDBRANCH  14  18
BRANCH  15  20
ATOM     20  O   UNL d   1     -38.782  15.175  23.139  0.00  0.00    -0.326 OA
ATOM     21  C   UNL d   1     -38.842  15.922  23.472  0.00  0.00     0.181 C 
ENDBRANCH  15  20
ENDBRANCH   1  12
TORSDOF 5
ENDMDL
MODEL 7
REMARK VINA RESULT:      -5.4      8.822     10.150
REMARK  5 active torsions:
REMARK  status: ('A' for Active; 'I' for Inactive)
REMARK    1  A    between atoms: C_2  and  C_1 
REMARK    2  A    between atoms: C_7  and  C_2 
REMARK    3  A    between atoms: O_17  and  C_6 
REMARK    4  A    between atoms: C_10  and  C_7 
REMARK    5  A    between atoms: O_18  and  C_8 
ROOT
ATOM      1  C   UNL d   1     -39.516  13.993  19.350  0.00  0.00     0.042 C 
ENDROOT
BRANCH   1   2
ATOM      2  C   UNL d   1     -39.064  14.406  19.896  0.00  0.00     0.199 C 
ATOM      3  O   UNL d   1     -38.663  15.101  19.657  0.00  0.00    -0.286 OA
BRANCH   2   4
ATOM      4  C   UNL d   1     -38.996  14.152  20.682  0.00  0.00     0.078 A 
ATOM      5  C   UNL d   1     -39.492  14.491  21.264  0.00  0.00     0.202 A 
ATOM      6  C   UNL d   1     -39.433  14.246  22.049  0.00  0.00     0.084 A 
ATOM      7  O   UNL d   1     -40.046  15.078  21.049  0.00  0.00    -0.286 OA
ATOM      8  C   UNL d   1     -38.890  13.672  22.254  0.00  0.00     0.199 A 
ATOM      9  C   UNL d   1     -38.394  13.333  21.672  0.00  0.00     0.042 A 
ATOM     10  O   UNL d   1     -38.827  13.422  23.045  0.00  0.00    -0.286 OA
ATOM     11  C   UNL d   1     -38.454  13.576  20.899  0.00  0.00     0.010 A 
ENDBRANCH   2   4
ENDBRANCH   1   2
BRANCH   1  12
ATOM     12  C   UNL d   1     -39.383  14.069  18.540  0.00  0.00     0.005 A 
ATOM     13  C   UNL d   1     -39.882  14.527  18.089  0.00  0.00     0.026 A 
ATOM     14  C   UNL d   1     -39.740  14.597  17.271  0.00  0.00     0.116 A 
ATOM     15  C   UNL d   1     -39.110  14.215  16.919  0.00  0.00     0.116 A 
ATOM     16  C   UNL d   1     -38.600  13.746  17.389  0.00  0.00     0.026 A 
ATOM     17  C   UNL d   1     -38.735  13.670  18.210  0.00  0.00     0.002 A 
BRANCH  14  18
ATOM     18  O   UNL d   1     -40.247  15.063  16.805  0.00  0.00    -0.326 OA
ATOM     19  C   UNL d   1     -40.961  15.337  17.119  0.00  0.00     0.181 C 
ENDBRANCH  14  18
BRANCH  15  20
ATOM     20  O   UNL d   1     -38.958  14.276  16.111  0.00  0.00    -0.326 OA
ATOM     21  C   UNL d   1     -38.297  13.923  15.779  0.00  0.00     0.181 C 
ENDBRANCH  15  20
ENDBRANCH   1  12
TORSDOF 5
ENDMDL
MODEL 8
REMARK VINA RESULT:      -5.4      8.099     10.104
REMARK  5 active torsions:
REMARK  status: ('A' for Active; 'I' for Inactive)
REMARK    1  A    between atoms: C_2  and  C_1 
REMARK    2  A    between atoms: C_7  and  C_2 
REMARK    3  A    between atoms: O_17  and  C_6 
REMARK    4  A    between atoms: C_10  and  C_7 
REMARK    5  A    between atoms: O_18  and  C_8 
ROOT
ATOM      1  C   UNL d   1     -39.190  14.660  18.833  0.00  0.00     0.042 C 
ENDROOT
BRANCH   1   2
ATOM      2  C   UNL d   1     -39.494  14.138  18.278  0.00  0.00     0.199 C 
ATOM      3  O   UNL d   1     -40.180  13.694  18.464  0.00  0.00    -0.286 OA
BRANCH   2   4
ATOM      4  C   UNL d   1     -39.139  14.039  17.537  0.00  0.00     0.078 A 
ATOM      5  C   UNL d   1     -39.393  14.515  16.896  0.00  0.00     0.202 A 
ATOM      6  C   UNL d   1     -39.047  14.426  16.154  0.00  0.00     0.084 A 
ATOM      7  O   UNL d   1     -39.998  15.079  17.012  0.00  0.00    -0.286 OA
ATOM      8  C   UNL d   1     -38.456  13.872  16.046  0.00  0.00     0.199 A 
ATOM      9  C   UNL d   1     -38.202  13.397  16.687  0.00  0.00     0.042 A 
ATOM     10  O   UNL d   1     -38.104  13.780  15.299  0.00  0.00    -0.286 OA
ATOM     11  C   UNL d   1     -38.545  13.487  17.417  0.00  0.00     0.010 A 
ENDBRANCH   2   4
ENDBRANCH   1   2
BRANCH   1  12
ATOM     12  C   UNL d   1     -39.297  14.536  19.641  0.00  0.00     0.005 A 
ATOM     13  C   UNL d   1     -39.872  14.952  20.042  0.00  0.00     0.026 A 
ATOM     14  C   UNL d   1     -39.972  14.820  20.858  0.00  0.00     0.116 A 
ATOM     15  C   UNL d   1     -39.506  14.284  21.259  0.00  0.00     0.116 A 
ATOM     16  C   UNL d   1     -38.917  13.860  20.841  0.00  0.00     0.026 A 
ATOM     17  C   UNL d   1     -38.809  13.985  20.022  0.00  0.00     0.002 A 
BRANCH  14  18
ATOM     18  O   UNL d   1     -40.557  15.242  21.272  0.00  0.00    -0.326 OA
ATOM     19  C   UNL d   1     -40.923  15.895  20.920  0.00  0.00     0.181 C 
ENDBRANCH  14  18
BRANCH  15  20
ATOM     20  O   UNL d   1     -39.595  14.144  22.066  0.00  0.00    -0.326 OA
ATOM     21  C   UNL d   1     -39.097  13.628  22.462  0.00  0.00     0.181 C 
ENDBRANCH  15  20
ENDBRANCH   1  12
TORSDOF 5
ENDMDL
