MODEL 1
REMARK VINA RESULT:      58.2      0.000      0.000
REMARK  2 active torsions:
REMARK  status: ('A' for Active; 'I' for Inactive)
REMARK    1  A    between atoms: C_7  and  N_2 
REMARK    2  A    between atoms: C_9  and  C_5 
ROOT
ATOM      1  C   UNL d   1      60.084  49.544  50.906  0.00  0.00     0.208 A 
ATOM      2  N   UNL d   1      59.355  49.587  51.296  0.00  0.00    -0.266 N 
ATOM      3  N   UNL d   1      60.779  49.565  51.340  0.00  0.00    -0.199 NA
ATOM      4  N   UNL d   1      60.034  49.669  52.553  0.00  0.00    -0.206 NA
ATOM      5  C   UNL d   1      60.763  49.627  52.163  0.00  0.00     0.167 A 
ATOM      6  C   UNL d   1      59.338  49.649  52.113  0.00  0.00     0.186 A 
ATOM      7  S   UNL d   1      60.125  49.482  50.084  0.00  0.00    -0.038 SA
ENDROOT
BRANCH   2   8
ATOM      8  C   UNL d   1      58.665  49.567  50.867  0.00  0.00     0.068 A 
ATOM      9  C   UNL d   1      57.960  49.469  51.241  0.00  0.00     0.018 A 
ATOM     10  C   UNL d   1      57.232  49.446  50.810  0.00  0.00     0.002 A 
ATOM     11  C   UNL d   1      57.257  49.527  49.995  0.00  0.00     0.000 A 
ATOM     12  C   UNL d   1      57.979  49.628  49.610  0.00  0.00     0.002 A 
ATOM     13  C   UNL d   1      56.548  49.507  49.553  0.00  0.00     0.000 C 
ATOM     14  C   UNL d   1      58.690  49.648  50.052  0.00  0.00     0.018 A 
ENDBRANCH   2   8
BRANCH   5  15
ATOM     15  C   UNL d   1      61.449  49.646  52.581  0.00  0.00     0.036 A 
ATOM     16  C   UNL d   1      62.178  49.648  52.188  0.00  0.00     0.003 A 
ATOM     17  C   UNL d   1      62.883  49.668  52.606  0.00  0.00     0.000 A 
ATOM     18  C   UNL d   1      62.868  49.685  53.446  0.00  0.00     0.000 A 
ATOM     19  C   UNL d   1      62.148  49.682  53.843  0.00  0.00     0.000 A 
ATOM     20  C   UNL d   1      61.434  49.663  53.421  0.00  0.00     0.003 A 
ENDBRANCH   5  15
TORSDOF 2
ENDMDL
