MODEL 1
REMARK VINA RESULT:     111.6      0.000      0.000
REMARK  4 active torsions:
REMARK  status: ('A' for Active; 'I' for Inactive)
REMARK    1  A    between atoms: N_9  and  C_3 
REMARK    2  A    between atoms: C_11  and  C_5 
REMARK    3  A    between atoms: C_15  and  C_10 
REMARK    4  A    between atoms: C_18  and  C_15 
ROOT
ATOM      1  N   UNL d   1      61.351  47.284  50.320  0.00  0.00    -0.196 N 
ATOM      2  C   UNL d   1      61.291  46.460  50.197  0.00  0.00     0.167 A 
ATOM      3  C   UNL d   1      60.810  47.643  50.815  0.00  0.00     0.152 A 
ATOM      4  N   UNL d   1      62.476  47.332  49.455  0.00  0.00    -0.163 NA
ATOM      5  C   UNL d   1      61.818  46.084  49.709  0.00  0.00     0.055 A 
ATOM      6  C   UNL d   1      62.416  46.507  49.331  0.00  0.00     0.104 A 
ATOM      7  N   UNL d   1      60.693  46.036  50.574  0.00  0.00    -0.227 NA
ATOM      8  C   UNL d   1      60.220  47.237  51.190  0.00  0.00     0.057 A 
ATOM      9  C   UNL d   1      60.160  46.412  51.067  0.00  0.00     0.086 A 
ATOM     10  C   UNL d   1      62.949  46.135  48.839  0.00  0.00     0.023 C 
ENDROOT
BRANCH   5  11
ATOM     11  C   UNL d   1      61.758  45.271  49.587  0.00  0.00     0.004 A 
ATOM     12  C   UNL d   1      62.141  44.756  50.100  0.00  0.00     0.000 A 
ATOM     13  C   UNL d   1      62.082  43.944  49.978  0.00  0.00     0.000 A 
ATOM     14  C   UNL d   1      61.639  43.647  49.344  0.00  0.00     0.000 A 
ATOM     15  C   UNL d   1      61.255  44.163  48.829  0.00  0.00     0.000 A 
ATOM     16  C   UNL d   1      61.315  44.988  48.952  0.00  0.00     0.000 A 
ENDBRANCH   5  11
BRANCH   3  17
ATOM     17  N   UNL d   1      60.872  48.493  50.943  0.00  0.00    -0.289 N 
ATOM     18  C   UNL d   1      60.549  48.973  50.463  0.00  0.00     0.082 A 
ATOM     19  C   UNL d   1      60.602  49.708  50.573  0.00  0.00     0.021 A 
ATOM     20  C   UNL d   1      61.303  49.497  51.641  0.00  0.00     0.021 A 
ATOM     21  C   UNL d   1      61.248  48.749  51.529  0.00  0.00     0.082 A 
ENDBRANCH   3  17
BRANCH   9  22
ATOM     22  C   UNL d   1      59.539  45.966  51.458  0.00  0.00     0.019 C 
BRANCH  22  23
ATOM     23  C   UNL d   1      58.746  45.915  51.111  0.00  0.00     0.002 C 
ATOM     24  C   UNL d   1      58.298  45.194  51.165  0.00  0.00     0.000 C 
ENDBRANCH  22  23
ENDBRANCH   9  22
TORSDOF 4
ENDMDL
MODEL 2
REMARK VINA RESULT:     113.2      8.249     10.270
REMARK  4 active torsions:
REMARK  status: ('A' for Active; 'I' for Inactive)
REMARK    1  A    between atoms: N_9  and  C_3 
REMARK    2  A    between atoms: C_11  and  C_5 
REMARK    3  A    between atoms: C_15  and  C_10 
REMARK    4  A    between atoms: C_18  and  C_15 
ROOT
ATOM      1  N   UNL d   1      57.821  38.107  55.163  0.00  0.00    -0.196 N 
ATOM      2  C   UNL d   1      57.977  38.920  55.279  0.00  0.00     0.167 A 
ATOM      3  C   UNL d   1      57.134  37.895  54.775  0.00  0.00     0.152 A 
ATOM      4  N   UNL d   1      59.034  37.778  55.823  0.00  0.00    -0.163 NA
ATOM      5  C   UNL d   1      58.653  39.151  55.662  0.00  0.00     0.055 A 
ATOM      6  C   UNL d   1      59.191  38.591  55.940  0.00  0.00     0.104 A 
ATOM      7  N   UNL d   1      57.440  39.479  55.001  0.00  0.00    -0.227 NA
ATOM      8  C   UNL d   1      56.600  38.437  54.498  0.00  0.00     0.057 A 
ATOM      9  C   UNL d   1      56.757  39.250  54.615  0.00  0.00     0.086 A 
ATOM     10  C   UNL d   1      59.872  38.817  56.326  0.00  0.00     0.023 C 
ENDROOT
BRANCH   5  11
ATOM     11  C   UNL d   1      58.808  39.952  55.776  0.00  0.00     0.004 A 
ATOM     12  C   UNL d   1      59.491  40.282  55.461  0.00  0.00     0.000 A 
ATOM     13  C   UNL d   1      59.645  41.083  55.575  0.00  0.00     0.000 A 
ATOM     14  C   UNL d   1      59.116  41.553  56.005  0.00  0.00     0.000 A 
ATOM     15  C   UNL d   1      58.430  41.223  56.323  0.00  0.00     0.000 A 
ATOM     16  C   UNL d   1      58.274  40.410  56.206  0.00  0.00     0.000 A 
ENDBRANCH   5  11
BRANCH   3  17
ATOM     17  N   UNL d   1      56.973  37.057  54.655  0.00  0.00    -0.289 N 
ATOM     18  C   UNL d   1      57.497  36.609  54.358  0.00  0.00     0.082 A 
ATOM     19  C   UNL d   1      57.358  35.884  54.254  0.00  0.00     0.021 A 
ATOM     20  C   UNL d   1      56.170  36.044  54.742  0.00  0.00     0.021 A 
ATOM     21  C   UNL d   1      56.312  36.781  54.847  0.00  0.00     0.082 A 
ENDBRANCH   3  17
BRANCH   9  22
ATOM     22  C   UNL d   1      56.201  39.837  54.327  0.00  0.00     0.019 C 
BRANCH  22  23
ATOM     23  C   UNL d   1      56.038  39.914  53.480  0.00  0.00     0.002 C 
ATOM     24  C   UNL d   1      56.052  40.679  53.107  0.00  0.00     0.000 C 
ENDBRANCH  22  23
ENDBRANCH   9  22
TORSDOF 4
ENDMDL
