MODEL 1
REMARK VINA RESULT:      -2.8      0.000      0.000
REMARK  5 active torsions:
REMARK  status: ('A' for Active; 'I' for Inactive)
REMARK    1  A    between atoms: C_7  and  N_1 
REMARK    2  A    between atoms: C_8  and  N_6 
REMARK    3  A    between atoms: C_15  and  C_7 
REMARK    4  A    between atoms: N_9  and  C_15 
REMARK    5  A    between atoms: O_20  and  C_14 
ROOT
ATOM      1  N   UNL d   1      32.752  17.780 -23.782  0.00  0.00    -0.300 N 
ATOM      2  N   UNL d   1      33.078  19.186 -22.982  0.00  0.00    -0.299 N 
ATOM      3  C   UNL d   1      32.805  18.493 -24.200  0.00  0.00     0.100 A 
ATOM      4  C   UNL d   1      32.863  17.771 -22.965  0.00  0.00     0.100 A 
ATOM      5  C   UNL d   1      32.968  19.195 -23.799  0.00  0.00     0.100 A 
ATOM      6  C   UNL d   1      33.026  18.474 -22.564  0.00  0.00     0.100 A 
ENDROOT
BRANCH   2   7
ATOM      7  C   UNL d   1      33.241  19.888 -22.581  0.00  0.00     0.100 C 
BRANCH   7   8
ATOM      8  C   UNL d   1      32.696  20.191 -22.037  0.00  0.00     0.105 C 
BRANCH   8   9
ATOM      9  N   UNL d   1      32.802  20.945 -21.710  0.00  0.00    -0.239 N 
ATOM     10  C   UNL d   1      32.795  21.662 -22.115  0.00  0.00     0.267 A 
ATOM     11  C   UNL d   1      32.924  22.267 -21.566  0.00  0.00     0.061 A 
ATOM     12  O   UNL d   1      32.680  21.757 -22.926  0.00  0.00    -0.267 OA
ATOM     13  C   UNL d   1      32.971  23.082 -21.656  0.00  0.00     0.005 A 
ATOM     14  C   UNL d   1      33.010  21.925 -20.820  0.00  0.00     0.061 A 
ATOM     15  C   UNL d   1      33.107  23.558 -20.994  0.00  0.00     0.000 A 
ATOM     16  C   UNL d   1      33.194  23.209 -20.244  0.00  0.00     0.000 A 
ATOM     17  C   UNL d   1      33.145  22.396 -20.165  0.00  0.00     0.005 A 
ATOM     18  C   UNL d   1      32.936  21.108 -20.905  0.00  0.00     0.267 A 
ATOM     19  O   UNL d   1      32.986  20.549 -20.295  0.00  0.00    -0.267 OA
ENDBRANCH   8   9
ENDBRANCH   7   8
ENDBRANCH   2   7
BRANCH   1  20
ATOM     20  C   UNL d   1      32.589  17.076 -24.187  0.00  0.00     0.086 A 
ATOM     21  C   UNL d   1      31.810  16.892 -24.396  0.00  0.00     0.110 A 
ATOM     22  C   UNL d   1      31.648  16.185 -24.802  0.00  0.00     0.026 A 
ATOM     23  C   UNL d   1      32.260  15.667 -24.995  0.00  0.00     0.002 A 
ATOM     24  C   UNL d   1      33.039  15.851 -24.785  0.00  0.00     0.002 A 
ATOM     25  C   UNL d   1      33.204  16.552 -24.383  0.00  0.00     0.019 A 
BRANCH  21  26
ATOM     26  O   UNL d   1      31.188  17.399 -24.210  0.00  0.00    -0.327 OA
ATOM     27  C   UNL d   1      30.404  17.193 -24.376  0.00  0.00     0.181 C 
ENDBRANCH  21  26
ENDBRANCH   1  20
TORSDOF 5
ENDMDL
MODEL 2
REMARK VINA RESULT:      -1.3      1.187      5.729
REMARK  5 active torsions:
REMARK  status: ('A' for Active; 'I' for Inactive)
REMARK    1  A    between atoms: C_7  and  N_1 
REMARK    2  A    between atoms: C_8  and  N_6 
REMARK    3  A    between atoms: C_15  and  C_7 
REMARK    4  A    between atoms: N_9  and  C_15 
REMARK    5  A    between atoms: O_20  and  C_14 
ROOT
ATOM      1  N   UNL d   1      32.843  21.859 -20.987  0.00  0.00    -0.300 N 
ATOM      2  N   UNL d   1      33.042  20.737 -22.181  0.00  0.00    -0.299 N 
ATOM      3  C   UNL d   1      33.126  22.089 -21.729  0.00  0.00     0.100 A 
ATOM      4  C   UNL d   1      32.660  21.068 -20.842  0.00  0.00     0.100 A 
ATOM      5  C   UNL d   1      33.225  21.528 -22.326  0.00  0.00     0.100 A 
ATOM      6  C   UNL d   1      32.759  20.507 -21.438  0.00  0.00     0.100 A 
ENDROOT
BRANCH   2   7
ATOM      7  C   UNL d   1      33.141  20.176 -22.777  0.00  0.00     0.100 C 
BRANCH   7   8
ATOM      8  C   UNL d   1      33.241  19.378 -22.583  0.00  0.00     0.105 C 
BRANCH   8   9
ATOM      9  N   UNL d   1      32.996  18.784 -23.106  0.00  0.00    -0.239 N 
ATOM     10  C   UNL d   1      32.824  18.874 -23.906  0.00  0.00     0.267 A 
ATOM     11  C   UNL d   1      32.603  18.135 -24.206  0.00  0.00     0.061 A 
ATOM     12  O   UNL d   1      32.864  19.579 -24.332  0.00  0.00    -0.267 OA
ATOM     13  C   UNL d   1      32.376  17.898 -24.958  0.00  0.00     0.005 A 
ATOM     14  C   UNL d   1      32.640  17.586 -23.590  0.00  0.00     0.061 A 
ATOM     15  C   UNL d   1      32.184  17.106 -25.097  0.00  0.00     0.000 A 
ATOM     16  C   UNL d   1      32.222  16.556 -24.473  0.00  0.00     0.000 A 
ATOM     17  C   UNL d   1      32.450  16.802 -23.727  0.00  0.00     0.005 A 
ATOM     18  C   UNL d   1      32.882  17.984 -22.909  0.00  0.00     0.267 A 
ATOM     19  O   UNL d   1      32.992  17.644 -22.161  0.00  0.00    -0.267 OA
ENDBRANCH   8   9
ENDBRANCH   7   8
ENDBRANCH   2   7
BRANCH   1  20
ATOM     20  C   UNL d   1      32.744  22.424 -20.389  0.00  0.00     0.086 A 
ATOM     21  C   UNL d   1      32.153  22.998 -20.458  0.00  0.00     0.110 A 
ATOM     22  C   UNL d   1      32.055  23.564 -19.857  0.00  0.00     0.026 A 
ATOM     23  C   UNL d   1      32.546  23.554 -19.194  0.00  0.00     0.002 A 
ATOM     24  C   UNL d   1      33.138  22.980 -19.125  0.00  0.00     0.002 A 
ATOM     25  C   UNL d   1      33.238  22.417 -19.719  0.00  0.00     0.019 A 
BRANCH  21  26
ATOM     26  O   UNL d   1      31.655  23.020 -21.114  0.00  0.00    -0.327 OA
ATOM     27  C   UNL d   1      31.229  23.702 -21.304  0.00  0.00     0.181 C 
ENDBRANCH  21  26
ENDBRANCH   1  20
TORSDOF 5
ENDMDL
MODEL 3
REMARK VINA RESULT:      -0.9      0.797      1.160
REMARK  5 active torsions:
REMARK  status: ('A' for Active; 'I' for Inactive)
REMARK    1  A    between atoms: C_7  and  N_1 
REMARK    2  A    between atoms: C_8  and  N_6 
REMARK    3  A    between atoms: C_15  and  C_7 
REMARK    4  A    between atoms: N_9  and  C_15 
REMARK    5  A    between atoms: O_20  and  C_14 
ROOT
ATOM      1  N   UNL d   1      31.768  17.568 -24.070  0.00  0.00    -0.300 N 
ATOM      2  N   UNL d   1      32.596  18.888 -23.526  0.00  0.00    -0.299 N 
ATOM      3  C   UNL d   1      31.747  17.769 -23.268  0.00  0.00     0.100 A 
ATOM      4  C   UNL d   1      32.203  18.027 -24.599  0.00  0.00     0.100 A 
ATOM      5  C   UNL d   1      32.162  18.429 -22.996  0.00  0.00     0.100 A 
ATOM      6  C   UNL d   1      32.617  18.687 -24.328  0.00  0.00     0.100 A 
ENDROOT
BRANCH   2   7
ATOM      7  C   UNL d   1      33.010  19.547 -23.255  0.00  0.00     0.100 C 
BRANCH   7   8
ATOM      8  C   UNL d   1      33.043  19.712 -22.445  0.00  0.00     0.105 C 
BRANCH   8   9
ATOM      9  N   UNL d   1      33.087  20.495 -22.176  0.00  0.00    -0.239 N 
ATOM     10  C   UNL d   1      33.129  21.172 -22.642  0.00  0.00     0.267 A 
ATOM     11  C   UNL d   1      33.165  21.828 -22.138  0.00  0.00     0.061 A 
ATOM     12  O   UNL d   1      33.134  21.193 -23.466  0.00  0.00    -0.267 OA
ATOM     13  C   UNL d   1      33.212  22.632 -22.294  0.00  0.00     0.005 A 
ATOM     14  C   UNL d   1      33.145  21.555 -21.359  0.00  0.00     0.061 A 
ATOM     15  C   UNL d   1      33.241  23.169 -21.665  0.00  0.00     0.000 A 
ATOM     16  C   UNL d   1      33.221  22.890 -20.881  0.00  0.00     0.000 A 
ATOM     17  C   UNL d   1      33.174  22.085 -20.737  0.00  0.00     0.005 A 
ATOM     18  C   UNL d   1      33.098  20.731 -21.379  0.00  0.00     0.267 A 
ATOM     19  O   UNL d   1      33.065  20.230 -20.719  0.00  0.00    -0.267 OA
ENDBRANCH   8   9
ENDBRANCH   7   8
ENDBRANCH   2   7
BRANCH   1  20
ATOM     20  C   UNL d   1      31.351  16.905 -24.340  0.00  0.00     0.086 A 
ATOM     21  C   UNL d   1      30.561  16.980 -24.570  0.00  0.00     0.110 A 
ATOM     22  C   UNL d   1      30.144  16.314 -24.842  0.00  0.00     0.026 A 
ATOM     23  C   UNL d   1      30.517  15.579 -24.881  0.00  0.00     0.002 A 
ATOM     24  C   UNL d   1      31.308  15.504 -24.651  0.00  0.00     0.002 A 
ATOM     25  C   UNL d   1      31.725  16.163 -24.381  0.00  0.00     0.019 A 
BRANCH  21  26
ATOM     26  O   UNL d   1      30.175  17.707 -24.537  0.00  0.00    -0.327 OA
ATOM     27  C   UNL d   1      29.366  17.770 -24.699  0.00  0.00     0.181 C 
ENDBRANCH  21  26
ENDBRANCH   1  20
TORSDOF 5
ENDMDL
