MODEL 1
REMARK VINA RESULT:      -7.5      0.000      0.000
REMARK  3 active torsions:
REMARK  status: ('A' for Active; 'I' for Inactive)
REMARK    1  A    between atoms: N_6  and  C_1 
REMARK    2  A    between atoms: C_9  and  C_2 
REMARK       I    between atoms: C_8  and  N_6 
REMARK       I    between atoms: C_11  and  N_7 
REMARK    3  A    between atoms: C_17  and  C_8 
ROOT
ATOM      1  C   UNL d   1     -47.312  12.179  23.093  0.00  0.00     0.119 A 
ATOM      2  C   UNL d   1     -46.641  12.609  22.890  0.00  0.00     0.084 A 
ATOM      3  C   UNL d   1     -46.253  11.388  23.254  0.00  0.00     0.049 A 
ATOM      4  C   UNL d   1     -45.981  12.117  22.990  0.00  0.00     0.016 A 
ATOM      5  S   UNL d   1     -47.073  11.419  23.319  0.00  0.00    -0.066 SA
ATOM      6  N   UNL d   1     -44.901  10.905  23.287  0.00  0.00    -0.272 N 
ATOM      7  C   UNL d   1     -45.702  10.778  23.403  0.00  0.00     0.089 A 
ATOM      8  C   UNL d   1     -44.352  10.308  23.432  0.00  0.00     0.265 C 
ATOM      9  C   UNL d   1     -45.176  12.253  22.872  0.00  0.00     0.020 A 
ATOM     10  C   UNL d   1     -44.636  11.648  23.020  0.00  0.00     0.083 A 
ATOM     11  O   UNL d   1     -44.615   9.572  23.697  0.00  0.00    -0.267 OA
ATOM     12  C   UNL d   1     -43.551  10.434  23.317  0.00  0.00     0.066 C 
ENDROOT
BRANCH   1  13
ATOM     13  N   UNL d   1     -48.099  12.453  23.076  0.00  0.00    -0.201 NA
ATOM     14  C   UNL d   1     -48.715  11.907  23.009  0.00  0.00     0.280 C 
ATOM     15  O   UNL d   1     -48.568  11.099  22.960  0.00  0.00    -0.265 OA
BRANCH  14  16
ATOM     16  C   UNL d   1     -49.494  12.179  22.992  0.00  0.00     0.058 A 
ATOM     17  C   UNL d   1     -49.809  12.486  22.291  0.00  0.00     0.005 A 
ATOM     18  C   UNL d   1     -50.588  12.757  22.274  0.00  0.00     0.000 A 
ATOM     19  C   UNL d   1     -51.064  12.726  22.958  0.00  0.00     0.000 A 
ATOM     20  C   UNL d   1     -50.737  12.417  23.650  0.00  0.00     0.000 A 
ATOM     21  C   UNL d   1     -49.958  12.145  23.667  0.00  0.00     0.005 A 
ENDBRANCH  14  16
ENDBRANCH   1  13
BRANCH   2  22
ATOM     22  C   UNL d   1     -46.637  13.389  22.635  0.00  0.00     0.299 C 
ATOM     23  O   UNL d   1     -46.632  13.547  21.824  0.00  0.00    -0.264 OA
ATOM     24  N   UNL d   1     -46.638  14.008  23.178  0.00  0.00    -0.102 N 
ENDBRANCH   2  22
TORSDOF 3
ENDMDL
MODEL 2
REMARK VINA RESULT:      -7.2      1.090      4.532
REMARK  3 active torsions:
REMARK  status: ('A' for Active; 'I' for Inactive)
REMARK    1  A    between atoms: N_6  and  C_1 
REMARK    2  A    between atoms: C_9  and  C_2 
REMARK       I    between atoms: C_8  and  N_6 
REMARK       I    between atoms: C_11  and  N_7 
REMARK    3  A    between atoms: C_17  and  C_8 
ROOT
ATOM      1  C   UNL d   1     -46.818  12.242  23.278  0.00  0.00     0.119 A 
ATOM      2  C   UNL d   1     -47.094  13.007  23.156  0.00  0.00     0.084 A 
ATOM      3  C   UNL d   1     -48.147  12.217  23.358  0.00  0.00     0.049 A 
ATOM      4  C   UNL d   1     -47.922  12.992  23.206  0.00  0.00     0.016 A 
ATOM      5  S   UNL d   1     -47.472  11.748  23.404  0.00  0.00    -0.066 SA
ATOM      6  N   UNL d   1     -49.524  12.627  23.363  0.00  0.00    -0.272 N 
ATOM      7  C   UNL d   1     -48.960  12.038  23.437  0.00  0.00     0.089 A 
ATOM      8  C   UNL d   1     -50.326  12.457  23.439  0.00  0.00     0.265 C 
ATOM      9  C   UNL d   1     -48.484  13.592  23.129  0.00  0.00     0.020 A 
ATOM     10  C   UNL d   1     -49.284  13.410  23.208  0.00  0.00     0.083 A 
ATOM     11  O   UNL d   1     -50.564  11.682  23.592  0.00  0.00    -0.267 OA
ATOM     12  C   UNL d   1     -50.891  13.047  23.365  0.00  0.00     0.066 C 
ENDROOT
BRANCH   1  13
ATOM     13  N   UNL d   1     -46.022  11.997  23.276  0.00  0.00    -0.201 NA
ATOM     14  C   UNL d   1     -45.847  11.191  23.324  0.00  0.00     0.280 C 
ATOM     15  O   UNL d   1     -46.443  10.626  23.373  0.00  0.00    -0.265 OA
BRANCH  14  16
ATOM     16  C   UNL d   1     -45.058  10.949  23.323  0.00  0.00     0.058 A 
ATOM     17  C   UNL d   1     -44.485  11.409  22.942  0.00  0.00     0.005 A 
ATOM     18  C   UNL d   1     -43.697  11.167  22.940  0.00  0.00     0.000 A 
ATOM     19  C   UNL d   1     -43.468  10.461  23.320  0.00  0.00     0.000 A 
ATOM     20  C   UNL d   1     -44.050  10.012  23.696  0.00  0.00     0.000 A 
ATOM     21  C   UNL d   1     -44.839  10.254  23.698  0.00  0.00     0.005 A 
ENDBRANCH  14  16
ENDBRANCH   1  13
BRANCH   2  22
ATOM     22  C   UNL d   1     -46.623  13.663  23.010  0.00  0.00     0.299 C 
ATOM     23  O   UNL d   1     -46.216  14.013  23.638  0.00  0.00    -0.264 OA
ATOM     24  N   UNL d   1     -46.556  13.970  22.249  0.00  0.00    -0.102 N 
ENDBRANCH   2  22
TORSDOF 3
ENDMDL
MODEL 3
REMARK VINA RESULT:      -6.9      1.698      2.365
REMARK  3 active torsions:
REMARK  status: ('A' for Active; 'I' for Inactive)
REMARK    1  A    between atoms: N_6  and  C_1 
REMARK    2  A    between atoms: C_9  and  C_2 
REMARK       I    between atoms: C_8  and  N_6 
REMARK       I    between atoms: C_11  and  N_7 
REMARK    3  A    between atoms: C_17  and  C_8 
ROOT
ATOM      1  C   UNL d   1     -47.845  12.624  23.034  0.00  0.00     0.119 A 
ATOM      2  C   UNL d   1     -47.989  11.817  23.101  0.00  0.00     0.084 A 
ATOM      3  C   UNL d   1     -46.680  12.016  23.241  0.00  0.00     0.049 A 
ATOM      4  C   UNL d   1     -47.263  11.438  23.230  0.00  0.00     0.016 A 
ATOM      5  S   UNL d   1     -47.031  12.750  23.121  0.00  0.00    -0.066 SA
ATOM      6  N   UNL d   1     -45.690  10.999  23.469  0.00  0.00    -0.272 N 
ATOM      7  C   UNL d   1     -45.884  11.788  23.362  0.00  0.00     0.089 A 
ATOM      8  C   UNL d   1     -44.908  10.769  23.589  0.00  0.00     0.265 C 
ATOM      9  C   UNL d   1     -47.076  10.641  23.336  0.00  0.00     0.020 A 
ATOM     10  C   UNL d   1     -46.290  10.422  23.455  0.00  0.00     0.083 A 
ATOM     11  O   UNL d   1     -44.314  11.341  23.602  0.00  0.00    -0.267 OA
ATOM     12  C   UNL d   1     -44.713   9.980  23.695  0.00  0.00     0.066 C 
ENDROOT
BRANCH   1  13
ATOM     13  N   UNL d   1     -48.414  13.218  22.902  0.00  0.00    -0.201 NA
ATOM     14  C   UNL d   1     -48.213  14.008  23.040  0.00  0.00     0.280 C 
ATOM     15  O   UNL d   1     -47.463  14.219  23.305  0.00  0.00    -0.265 OA
BRANCH  14  16
ATOM     16  C   UNL d   1     -48.777  14.596  22.909  0.00  0.00     0.058 A 
ATOM     17  C   UNL d   1     -49.222  14.890  23.542  0.00  0.00     0.005 A 
ATOM     18  C   UNL d   1     -49.785  15.478  23.411  0.00  0.00     0.000 A 
ATOM     19  C   UNL d   1     -49.913  15.782  22.646  0.00  0.00     0.000 A 
ATOM     20  C   UNL d   1     -49.461  15.480  22.024  0.00  0.00     0.000 A 
ATOM     21  C   UNL d   1     -48.898  14.892  22.154  0.00  0.00     0.005 A 
ENDBRANCH  14  16
ENDBRANCH   1  13
BRANCH   2  22
ATOM     22  C   UNL d   1     -48.726  11.461  23.047  0.00  0.00     0.299 C 
ATOM     23  O   UNL d   1     -48.957  11.119  22.332  0.00  0.00    -0.264 OA
ATOM     24  N   UNL d   1     -49.232  11.444  23.698  0.00  0.00    -0.102 N 
ENDBRANCH   2  22
TORSDOF 3
ENDMDL
MODEL 4
REMARK VINA RESULT:      -5.8      7.753      9.607
REMARK  3 active torsions:
REMARK  status: ('A' for Active; 'I' for Inactive)
REMARK    1  A    between atoms: N_6  and  C_1 
REMARK    2  A    between atoms: C_9  and  C_2 
REMARK       I    between atoms: C_8  and  N_6 
REMARK       I    between atoms: C_11  and  N_7 
REMARK    3  A    between atoms: C_17  and  C_8 
ROOT
ATOM      1  C   UNL d   1     -39.635  14.965  20.470  0.00  0.00     0.119 A 
ATOM      2  C   UNL d   1     -40.390  15.169  20.215  0.00  0.00     0.084 A 
ATOM      3  C   UNL d   1     -39.571  15.221  19.165  0.00  0.00     0.049 A 
ATOM      4  C   UNL d   1     -40.350  15.328  19.402  0.00  0.00     0.016 A 
ATOM      5  S   UNL d   1     -39.124  14.997  19.819  0.00  0.00    -0.066 SA
ATOM      6  N   UNL d   1     -39.941  15.572  17.822  0.00  0.00    -0.272 N 
ATOM      7  C   UNL d   1     -39.369  15.346  18.363  0.00  0.00     0.089 A 
ATOM      8  C   UNL d   1     -39.748  15.696  17.031  0.00  0.00     0.265 C 
ATOM      9  C   UNL d   1     -40.932  15.556  18.862  0.00  0.00     0.020 A 
ATOM     10  C   UNL d   1     -40.728  15.677  18.073  0.00  0.00     0.083 A 
ATOM     11  O   UNL d   1     -38.968  15.591  16.782  0.00  0.00    -0.267 OA
ATOM     12  C   UNL d   1     -40.319  15.922  16.488  0.00  0.00     0.066 C 
ENDROOT
BRANCH   1  13
ATOM     13  N   UNL d   1     -39.414  14.761  21.247  0.00  0.00    -0.201 NA
ATOM     14  C   UNL d   1     -38.684  14.396  21.377  0.00  0.00     0.280 C 
ATOM     15  O   UNL d   1     -38.172  14.230  20.755  0.00  0.00    -0.265 OA
BRANCH  14  16
ATOM     16  C   UNL d   1     -38.466  14.194  22.147  0.00  0.00     0.058 A 
ATOM     17  C   UNL d   1     -38.530  13.409  22.402  0.00  0.00     0.005 A 
ATOM     18  C   UNL d   1     -38.312  13.207  23.171  0.00  0.00     0.000 A 
ATOM     19  C   UNL d   1     -38.026  13.786  23.698  0.00  0.00     0.000 A 
ATOM     20  C   UNL d   1     -37.967  14.565  23.430  0.00  0.00     0.000 A 
ATOM     21  C   UNL d   1     -38.185  14.767  22.661  0.00  0.00     0.005 A 
ENDBRANCH  14  16
ENDBRANCH   1  13
BRANCH   2  22
ATOM     22  C   UNL d   1     -41.057  15.205  20.691  0.00  0.00     0.299 C 
ATOM     23  O   UNL d   1     -41.509  14.522  20.802  0.00  0.00    -0.264 OA
ATOM     24  N   UNL d   1     -41.276  15.911  21.053  0.00  0.00    -0.102 N 
ENDBRANCH   2  22
TORSDOF 3
ENDMDL
