MODEL 1
REMARK VINA RESULT:       7.9      0.000      0.000
REMARK  2 active torsions:
REMARK  status: ('A' for Active; 'I' for Inactive)
REMARK    1  A    between atoms: C_6  and  N_1 
REMARK    2  A    between atoms: C_14  and  C_13 
ROOT
ATOM      1  C   UNL d   1      45.381 -14.143  44.281  0.00  0.00     0.070 A 
ATOM      2  C   UNL d   1      45.975 -14.661  44.039  0.00  0.00     0.018 A 
ATOM      3  C   UNL d   1      44.753 -14.422  44.738  0.00  0.00     0.018 A 
ATOM      4  C   UNL d   1      45.945 -15.462  44.253  0.00  0.00     0.002 A 
ATOM      5  C   UNL d   1      44.716 -15.219  44.954  0.00  0.00     0.002 A 
ATOM      6  C   UNL d   1      45.317 -15.740  44.709  0.00  0.00     0.000 A 
ENDROOT
BRANCH   1   7
ATOM      7  N   UNL d   1      45.421 -13.355  44.064  0.00  0.00    -0.242 N 
ATOM      8  C   UNL d   1      45.950 -12.802  44.372  0.00  0.00     0.267 A 
ATOM      9  C   UNL d   1      45.798 -12.080  44.000  0.00  0.00     0.066 A 
ATOM     10  O   UNL d   1      46.525 -12.945  44.944  0.00  0.00    -0.267 OA
ATOM     11  C   UNL d   1      45.183 -12.184  43.469  0.00  0.00     0.066 A 
ATOM     12  C   UNL d   1      44.948 -12.972  43.508  0.00  0.00     0.267 A 
ATOM     13  O   UNL d   1      44.341 -13.318  43.063  0.00  0.00    -0.267 OA
ENDBRANCH   1   7
BRANCH   6  14
ATOM     14  C   UNL d   1      45.278 -16.533  44.926  0.00  0.00     0.000 C 
ATOM     15  C   UNL d   1      45.797 -17.074  44.576  0.00  0.00     0.000 C 
ENDBRANCH   6  14
TORSDOF 2
ENDMDL
MODEL 2
REMARK VINA RESULT:       9.7      7.138      7.740
REMARK  2 active torsions:
REMARK  status: ('A' for Active; 'I' for Inactive)
REMARK    1  A    between atoms: C_6  and  N_1 
REMARK    2  A    between atoms: C_14  and  C_13 
ROOT
ATOM      1  C   UNL d   1      44.586 -15.170  36.937  0.00  0.00     0.070 A 
ATOM      2  C   UNL d   1      44.501 -15.832  36.453  0.00  0.00     0.018 A 
ATOM      3  C   UNL d   1      43.924 -14.840  37.302  0.00  0.00     0.018 A 
ATOM      4  C   UNL d   1      43.753 -16.168  36.331  0.00  0.00     0.002 A 
ATOM      5  C   UNL d   1      43.175 -15.170  37.185  0.00  0.00     0.002 A 
ATOM      6  C   UNL d   1      43.091 -15.838  36.696  0.00  0.00     0.000 A 
ENDROOT
BRANCH   1   7
ATOM      7  N   UNL d   1      45.330 -14.847  37.050  0.00  0.00    -0.242 N 
ATOM      8  C   UNL d   1      46.037 -15.167  36.772  0.00  0.00     0.267 A 
ATOM      9  C   UNL d   1      46.647 -14.664  37.010  0.00  0.00     0.066 A 
ATOM     10  O   UNL d   1      46.117 -15.862  36.336  0.00  0.00    -0.267 OA
ATOM     11  C   UNL d   1      46.323 -14.041  37.431  0.00  0.00     0.066 A 
ATOM     12  C   UNL d   1      45.508 -14.152  37.456  0.00  0.00     0.267 A 
ATOM     13  O   UNL d   1      44.963 -13.650  37.827  0.00  0.00    -0.267 OA
ENDBRANCH   1   7
BRANCH   6  14
ATOM     14  C   UNL d   1      42.345 -16.164  36.582  0.00  0.00     0.000 C 
ATOM     15  C   UNL d   1      41.718 -15.672  36.357  0.00  0.00     0.000 C 
ENDBRANCH   6  14
TORSDOF 2
ENDMDL
MODEL 3
REMARK VINA RESULT:      10.8      4.430      5.676
REMARK  2 active torsions:
REMARK  status: ('A' for Active; 'I' for Inactive)
REMARK    1  A    between atoms: C_6  and  N_1 
REMARK    2  A    between atoms: C_14  and  C_13 
ROOT
ATOM      1  C   UNL d   1      46.485 -18.877  42.862  0.00  0.00     0.070 A 
ATOM      2  C   UNL d   1      46.644 -19.576  42.456  0.00  0.00     0.018 A 
ATOM      3  C   UNL d   1      46.317 -18.186  42.444  0.00  0.00     0.018 A 
ATOM      4  C   UNL d   1      46.635 -19.589  41.627  0.00  0.00     0.002 A 
ATOM      5  C   UNL d   1      46.306 -18.191  41.617  0.00  0.00     0.002 A 
ATOM      6  C   UNL d   1      46.467 -18.898  41.208  0.00  0.00     0.000 A 
ENDROOT
BRANCH   1   7
ATOM      7  N   UNL d   1      46.497 -18.875  43.681  0.00  0.00    -0.242 N 
ATOM      8  C   UNL d   1      46.539 -19.546  44.158  0.00  0.00     0.267 A 
ATOM      9  C   UNL d   1      46.537 -19.292  44.944  0.00  0.00     0.066 A 
ATOM     10  O   UNL d   1      46.577 -20.327  43.898  0.00  0.00    -0.267 OA
ATOM     11  C   UNL d   1      46.494 -18.474  44.954  0.00  0.00     0.066 A 
ATOM     12  C   UNL d   1      46.469 -18.214  44.173  0.00  0.00     0.267 A 
ATOM     13  O   UNL d   1      46.424 -17.425  43.927  0.00  0.00    -0.267 OA
ENDBRANCH   1   7
BRANCH   6  14
ATOM     14  C   UNL d   1      46.456 -18.901  40.386  0.00  0.00     0.000 C 
ATOM     15  C   UNL d   1      46.647 -19.597  39.981  0.00  0.00     0.000 C 
ENDBRANCH   6  14
TORSDOF 2
ENDMDL
