MODEL 1
REMARK VINA RESULT:      -3.5      0.000      0.000
REMARK  1 active torsions:
REMARK  status: ('A' for Active; 'I' for Inactive)
REMARK    1  A    between atoms: C_7  and  N_1 
ROOT
ATOM      1  N   UNL d   1      30.359  16.565 -23.973  0.00  0.00    -0.242 N 
ATOM      2  C   UNL d   1      30.928  16.152 -23.595  0.00  0.00     0.267 A 
ATOM      3  C   UNL d   1      30.506  17.271 -24.420  0.00  0.00     0.267 A 
ATOM      4  C   UNL d   1      31.709  16.436 -23.648  0.00  0.00     0.057 A 
ATOM      5  C   UNL d   1      31.288  17.512 -24.444  0.00  0.00     0.057 A 
ATOM      6  C   UNL d   1      31.875  17.086 -24.054  0.00  0.00     0.009 A 
ATOM      7  O   UNL d   1      29.921  17.697 -24.810  0.00  0.00    -0.267 OA
ATOM      8  O   UNL d   1      30.757  15.468 -23.167  0.00  0.00    -0.267 OA
ATOM      9  C   UNL d   1      32.659  17.366 -24.104  0.00  0.00     0.000 A 
ATOM     10  C   UNL d   1      31.460  18.197 -24.873  0.00  0.00     0.005 A 
ATOM     11  C   UNL d   1      32.304  16.001 -23.252  0.00  0.00     0.005 A 
ATOM     12  C   UNL d   1      32.222  18.465 -24.918  0.00  0.00     0.000 A 
ATOM     13  C   UNL d   1      33.081  16.248 -23.279  0.00  0.00     0.000 A 
ATOM     14  C   UNL d   1      32.807  18.038 -24.528  0.00  0.00     0.000 A 
ATOM     15  C   UNL d   1      33.241  16.957 -23.727  0.00  0.00     0.000 A 
ENDROOT
BRANCH   1  16
ATOM     16  C   UNL d   1      29.580  16.281 -23.920  0.00  0.00     0.070 A 
ATOM     17  C   UNL d   1      29.285  15.720 -24.464  0.00  0.00     0.021 A 
ATOM     18  C   UNL d   1      28.529  15.453 -24.403  0.00  0.00     0.043 A 
ATOM     19  C   UNL d   1      27.995  15.730 -23.780  0.00  0.00     0.196 A 
ATOM     20  C   UNL d   1      28.275  16.287 -23.234  0.00  0.00     0.043 A 
ATOM     21  O   UNL d   1      27.178  15.474 -23.674  0.00  0.00    -0.287 OA
ATOM     22  C   UNL d   1      29.073  16.559 -23.312  0.00  0.00     0.021 A 
ENDBRANCH   1  16
TORSDOF 1
ENDMDL
MODEL 2
REMARK VINA RESULT:      -1.7      4.843      6.309
REMARK  1 active torsions:
REMARK  status: ('A' for Active; 'I' for Inactive)
REMARK    1  A    between atoms: C_7  and  N_1 
ROOT
ATOM      1  N   UNL d   1      32.837  21.454 -21.621  0.00  0.00    -0.242 N 
ATOM      2  C   UNL d   1      32.890  21.734 -22.367  0.00  0.00     0.267 A 
ATOM      3  C   UNL d   1      32.895  20.632 -21.419  0.00  0.00     0.267 A 
ATOM      4  C   UNL d   1      33.008  21.180 -22.977  0.00  0.00     0.057 A 
ATOM      5  C   UNL d   1      33.011  20.125 -22.051  0.00  0.00     0.057 A 
ATOM      6  C   UNL d   1      33.065  20.414 -22.820  0.00  0.00     0.009 A 
ATOM      7  O   UNL d   1      32.840  20.344 -20.651  0.00  0.00    -0.267 OA
ATOM      8  O   UNL d   1      32.830  22.539 -22.535  0.00  0.00    -0.267 OA
ATOM      9  C   UNL d   1      33.184  19.863 -23.436  0.00  0.00     0.000 A 
ATOM     10  C   UNL d   1      33.071  19.319 -21.884  0.00  0.00     0.005 A 
ATOM     11  C   UNL d   1      33.063  21.474 -23.758  0.00  0.00     0.005 A 
ATOM     12  C   UNL d   1      33.186  18.789 -22.484  0.00  0.00     0.000 A 
ATOM     13  C   UNL d   1      33.179  20.964 -24.383  0.00  0.00     0.000 A 
ATOM     14  C   UNL d   1      33.240  19.078 -23.252  0.00  0.00     0.000 A 
ATOM     15  C   UNL d   1      33.239  20.134 -24.192  0.00  0.00     0.000 A 
ENDROOT
BRANCH   1  16
ATOM     16  C   UNL d   1      32.719  22.007 -21.012  0.00  0.00     0.070 A 
ATOM     17  C   UNL d   1      32.087  22.552 -21.038  0.00  0.00     0.021 A 
ATOM     18  C   UNL d   1      31.983  23.083 -20.442  0.00  0.00     0.043 A 
ATOM     19  C   UNL d   1      32.513  23.112 -19.758  0.00  0.00     0.196 A 
ATOM     20  C   UNL d   1      33.144  22.576 -19.720  0.00  0.00     0.043 A 
ATOM     21  O   UNL d   1      32.442  23.661 -19.096  0.00  0.00    -0.287 OA
ATOM     22  C   UNL d   1      33.240  22.025 -20.354  0.00  0.00     0.021 A 
ENDBRANCH   1  16
TORSDOF 1
ENDMDL
MODEL 3
REMARK VINA RESULT:      -1.7      2.554      4.031
REMARK  1 active torsions:
REMARK  status: ('A' for Active; 'I' for Inactive)
REMARK    1  A    between atoms: C_7  and  N_1 
ROOT
ATOM      1  N   UNL d   1      32.762  18.640 -23.561  0.00  0.00    -0.242 N 
ATOM      2  C   UNL d   1      32.826  19.224 -24.101  0.00  0.00     0.267 A 
ATOM      3  C   UNL d   1      32.829  18.761 -22.724  0.00  0.00     0.267 A 
ATOM      4  C   UNL d   1      32.967  19.995 -23.819  0.00  0.00     0.057 A 
ATOM      5  C   UNL d   1      32.968  19.534 -22.493  0.00  0.00     0.057 A 
ATOM      6  C   UNL d   1      33.033  20.136 -23.051  0.00  0.00     0.009 A 
ATOM      7  O   UNL d   1      32.764  18.159 -22.167  0.00  0.00    -0.267 OA
ATOM      8  O   UNL d   1      32.756  19.078 -24.910  0.00  0.00    -0.267 OA
ATOM      9  C   UNL d   1      33.175  20.911 -22.773  0.00  0.00     0.000 A 
ATOM     10  C   UNL d   1      33.038  19.681 -21.683  0.00  0.00     0.005 A 
ATOM     11  C   UNL d   1      33.033  20.606 -24.386  0.00  0.00     0.005 A 
ATOM     12  C   UNL d   1      33.175  20.433 -21.419  0.00  0.00     0.000 A 
ATOM     13  C   UNL d   1      33.171  21.374 -24.150  0.00  0.00     0.000 A 
ATOM     14  C   UNL d   1      33.240  21.034 -21.978  0.00  0.00     0.000 A 
ATOM     15  C   UNL d   1      33.241  21.508 -23.309  0.00  0.00     0.000 A 
ENDROOT
BRANCH   1  16
ATOM     16  C   UNL d   1      32.621  17.871 -23.843  0.00  0.00     0.070 A 
ATOM     17  C   UNL d   1      33.241  17.400 -24.146  0.00  0.00     0.021 A 
ATOM     18  C   UNL d   1      33.092  16.657 -24.415  0.00  0.00     0.043 A 
ATOM     19  C   UNL d   1      32.295  16.317 -24.404  0.00  0.00     0.196 A 
ATOM     20  C   UNL d   1      31.672  16.775 -24.106  0.00  0.00     0.043 A 
ATOM     21  O   UNL d   1      32.086  15.527 -24.682  0.00  0.00    -0.287 OA
ATOM     22  C   UNL d   1      31.844  17.554 -23.826  0.00  0.00     0.021 A 
ENDBRANCH   1  16
TORSDOF 1
ENDMDL
MODEL 4
REMARK VINA RESULT:      -1.5      4.452      5.643
REMARK  1 active torsions:
REMARK  status: ('A' for Active; 'I' for Inactive)
REMARK    1  A    between atoms: C_7  and  N_1 
ROOT
ATOM      1  N   UNL d   1      32.862  20.632 -22.230  0.00  0.00    -0.242 N 
ATOM      2  C   UNL d   1      32.680  20.806 -21.473  0.00  0.00     0.267 A 
ATOM      3  C   UNL d   1      33.050  21.216 -22.817  0.00  0.00     0.267 A 
ATOM      4  C   UNL d   1      32.675  21.609 -21.253  0.00  0.00     0.057 A 
ATOM      5  C   UNL d   1      33.034  21.992 -22.555  0.00  0.00     0.057 A 
ATOM      6  C   UNL d   1      32.845  22.170 -21.774  0.00  0.00     0.009 A 
ATOM      7  O   UNL d   1      33.238  21.037 -23.597  0.00  0.00    -0.267 OA
ATOM      8  O   UNL d   1      32.501  20.219 -20.922  0.00  0.00    -0.267 OA
ATOM      9  C   UNL d   1      32.840  22.974 -21.548  0.00  0.00     0.000 A 
ATOM     10  C   UNL d   1      33.213  22.581 -23.106  0.00  0.00     0.005 A 
ATOM     11  C   UNL d   1      32.484  21.790 -20.459  0.00  0.00     0.005 A 
ATOM     12  C   UNL d   1      33.206  23.358 -22.882  0.00  0.00     0.000 A 
ATOM     13  C   UNL d   1      32.469  22.565 -20.205  0.00  0.00     0.000 A 
ATOM     14  C   UNL d   1      33.018  23.536 -22.101  0.00  0.00     0.000 A 
ATOM     15  C   UNL d   1      32.657  23.161 -20.787  0.00  0.00     0.000 A 
ENDROOT
BRANCH   1  16
ATOM     16  C   UNL d   1      32.866  19.831 -22.449  0.00  0.00     0.070 A 
ATOM     17  C   UNL d   1      33.241  19.254 -21.976  0.00  0.00     0.021 A 
ATOM     18  C   UNL d   1      33.238  18.481 -22.198  0.00  0.00     0.043 A 
ATOM     19  C   UNL d   1      32.852  18.217 -22.928  0.00  0.00     0.196 A 
ATOM     20  C   UNL d   1      32.477  18.779 -23.406  0.00  0.00     0.043 A 
ATOM     21  O   UNL d   1      32.823  17.401 -23.208  0.00  0.00    -0.287 OA
ATOM     22  C   UNL d   1      32.489  19.588 -23.159  0.00  0.00     0.021 A 
ENDBRANCH   1  16
TORSDOF 1
ENDMDL
MODEL 5
REMARK VINA RESULT:      -0.6      4.840      6.133
REMARK  1 active torsions:
REMARK  status: ('A' for Active; 'I' for Inactive)
REMARK    1  A    between atoms: C_7  and  N_1 
ROOT
ATOM      1  N   UNL d   1      33.000  20.826 -21.877  0.00  0.00    -0.242 N 
ATOM      2  C   UNL d   1      33.101  21.447 -22.368  0.00  0.00     0.267 A 
ATOM      3  C   UNL d   1      32.907  20.897 -21.037  0.00  0.00     0.267 A 
ATOM      4  C   UNL d   1      33.115  22.207 -22.028  0.00  0.00     0.057 A 
ATOM      5  C   UNL d   1      32.927  21.663 -20.747  0.00  0.00     0.057 A 
ATOM      6  C   UNL d   1      33.032  22.304 -21.254  0.00  0.00     0.009 A 
ATOM      7  O   UNL d   1      32.803  20.258 -20.531  0.00  0.00    -0.267 OA
ATOM      8  O   UNL d   1      33.189  21.349 -23.182  0.00  0.00    -0.267 OA
ATOM      9  C   UNL d   1      33.046  23.068 -20.918  0.00  0.00     0.000 A 
ATOM     10  C   UNL d   1      32.839  21.763 -19.932  0.00  0.00     0.005 A 
ATOM     11  C   UNL d   1      33.221  22.857 -22.543  0.00  0.00     0.005 A 
ATOM     12  C   UNL d   1      32.854  22.505 -19.612  0.00  0.00     0.000 A 
ATOM     13  C   UNL d   1      33.240  23.618 -22.248  0.00  0.00     0.000 A 
ATOM     14  C   UNL d   1      32.958  23.145 -20.119  0.00  0.00     0.000 A 
ATOM     15  C   UNL d   1      33.148  23.702 -21.404  0.00  0.00     0.000 A 
ENDROOT
BRANCH   1  16
ATOM     16  C   UNL d   1      32.986  20.067 -22.217  0.00  0.00     0.070 A 
ATOM     17  C   UNL d   1      32.727  19.949 -23.001  0.00  0.00     0.021 A 
ATOM     18  C   UNL d   1      32.718  19.210 -23.319  0.00  0.00     0.043 A 
ATOM     19  C   UNL d   1      32.973  18.515 -22.868  0.00  0.00     0.196 A 
ATOM     20  C   UNL d   1      33.233  18.620 -22.089  0.00  0.00     0.043 A 
ATOM     21  O   UNL d   1      32.982  17.705 -23.165  0.00  0.00    -0.287 OA
ATOM     22  C   UNL d   1      33.237  19.403 -21.769  0.00  0.00     0.021 A 
ENDBRANCH   1  16
TORSDOF 1
ENDMDL
