MODEL 1
REMARK VINA RESULT:      26.9      0.000      0.000
REMARK  4 active torsions:
REMARK  status: ('A' for Active; 'I' for Inactive)
REMARK    1  A    between atoms: N_3  and  C_1 
REMARK       I    between atoms: C_7  and  N_3 
REMARK    2  A    between atoms: C_11  and  C_7 
REMARK    3  A    between atoms: C_12  and  C_11 
REMARK    4  A    between atoms: C_13  and  C_12 
ROOT
ATOM      1  C   UNL d   1     -50.532  25.614  33.568  0.00  0.00     0.124 A 
ATOM      2  C   UNL d   1     -50.805  26.397  33.563  0.00  0.00     0.093 A 
ATOM      3  C   UNL d   1     -51.592  26.642  33.561  0.00  0.00     0.103 C 
ATOM      4  S   UNL d   1     -49.711  25.634  33.568  0.00  0.00    -0.067 SA
ATOM      5  N   UNL d   1     -52.346  26.893  33.560  0.00  0.00    -0.191 NA
ATOM      6  C   UNL d   1     -50.140  26.900  33.559  0.00  0.00     0.019 A 
ATOM      7  C   UNL d   1     -49.465  26.422  33.562  0.00  0.00     0.038 A 
ENDROOT
BRANCH   1   8
ATOM      8  N   UNL d   1     -51.004  24.938  33.573  0.00  0.00    -0.201 NA
ATOM      9  C   UNL d   1     -50.659  24.201  33.715  0.00  0.00     0.280 C 
ATOM     10  O   UNL d   1     -49.849  24.140  33.851  0.00  0.00    -0.265 OA
BRANCH   9  11
ATOM     11  C   UNL d   1     -51.134  23.523  33.719  0.00  0.00     0.062 C 
BRANCH  11  12
ATOM     12  C   UNL d   1     -51.848  23.513  33.309  0.00  0.00     0.005 C 
BRANCH  12  13
ATOM     13  C   UNL d   1     -52.569  23.410  33.721  0.00  0.00     0.000 A 
ATOM     14  C   UNL d   1     -53.288  23.421  33.314  0.00  0.00     0.000 A 
ATOM     15  C   UNL d   1     -53.990  23.321  33.718  0.00  0.00     0.000 A 
ATOM     16  C   UNL d   1     -53.986  23.208  34.529  0.00  0.00     0.000 A 
ATOM     17  C   UNL d   1     -53.270  23.197  34.938  0.00  0.00     0.000 A 
ATOM     18  C   UNL d   1     -52.567  23.297  34.537  0.00  0.00     0.000 A 
ENDBRANCH  12  13
ENDBRANCH  11  12
ENDBRANCH   9  11
ENDBRANCH   1   8
TORSDOF 4
ENDMDL
