MODEL 1
REMARK VINA RESULT:       5.4      0.000      0.000
REMARK  5 active torsions:
REMARK  status: ('A' for Active; 'I' for Inactive)
REMARK    1  A    between atoms: C_11  and  C_3 
REMARK    2  A    between atoms: C_14  and  C_7 
REMARK    3  A    between atoms: O_18  and  C_11 
REMARK    4  A    between atoms: C_16  and  C_20 
REMARK    5  A    between atoms: C_20  and  O_18 
ROOT
ATOM      1  C   UNL d   1     -41.909-123.394 -51.127  0.00  0.00     0.172 A 
ATOM      2  C   UNL d   1     -41.892-122.573 -51.132  0.00  0.00     0.094 A 
ATOM      3  C   UNL d   1     -41.603-122.571 -52.524  0.00  0.00     0.081 A 
ATOM      4  C   UNL d   1     -42.031-122.159 -50.427  0.00  0.00     0.286 A 
ATOM      5  N   UNL d   1     -42.060-123.804 -50.435  0.00  0.00    -0.172 NA
ATOM      6  N   UNL d   1     -42.182-122.574 -49.735  0.00  0.00    -0.152 NA
ATOM      7  C   UNL d   1     -41.740-122.161 -51.828  0.00  0.00     0.014 A 
ATOM      8  C   UNL d   1     -41.618-123.400 -52.528  0.00  0.00     0.088 A 
ATOM      9  N   UNL d   1     -41.772-123.811 -51.823  0.00  0.00    -0.226 NA
ATOM     10  C   UNL d   1     -42.197-123.395 -49.739  0.00  0.00     0.373 A 
ATOM     11  O   UNL d   1     -42.016-121.330 -50.423  0.00  0.00    -0.265 OA
ATOM     12  O   UNL d   1     -42.349-123.814 -49.042  0.00  0.00    -0.242 OA
ATOM     13  C   UNL d   1     -41.482-123.815 -53.225  0.00  0.00     0.021 C 
ENDROOT
BRANCH   3  14
ATOM     14  C   UNL d   1     -41.451-122.168 -53.225  0.00  0.00     0.302 C 
ATOM     15  O   UNL d   1     -41.124-121.407 -53.196  0.00  0.00    -0.259 OA
BRANCH  14  16
ATOM     16  O   UNL d   1     -41.621-122.515 -53.953  0.00  0.00    -0.271 OA
BRANCH  16  17
ATOM     17  C   UNL d   1     -41.590-122.063 -54.645  0.00  0.00     0.126 C 
BRANCH  17  18
ATOM     18  C   UNL d   1     -42.134-122.201 -55.252  0.00  0.00     0.027 C 
ATOM     19  C   UNL d   1     -42.395-121.581 -55.724  0.00  0.00     0.002 C 
ENDBRANCH  17  18
ENDBRANCH  16  17
ENDBRANCH  14  16
ENDBRANCH   3  14
BRANCH   7  20
ATOM     20  C   UNL d   1     -41.726-121.336 -51.824  0.00  0.00     0.001 A 
ATOM     21  C   UNL d   1     -42.306-120.914 -52.234  0.00  0.00     0.000 A 
ATOM     22  C   UNL d   1     -42.294-120.084 -52.232  0.00  0.00     0.000 A 
ATOM     23  C   UNL d   1     -41.703-119.686 -51.821  0.00  0.00     0.000 A 
ATOM     24  C   UNL d   1     -41.123-120.109 -51.412  0.00  0.00     0.000 A 
ATOM     25  C   UNL d   1     -41.137-120.939 -51.416  0.00  0.00     0.000 A 
ENDBRANCH   7  20
TORSDOF 5
ENDMDL
MODEL 2
REMARK VINA RESULT:       6.3      1.691      4.119
REMARK  5 active torsions:
REMARK  status: ('A' for Active; 'I' for Inactive)
REMARK    1  A    between atoms: C_11  and  C_3 
REMARK    2  A    between atoms: C_14  and  C_7 
REMARK    3  A    between atoms: O_18  and  C_11 
REMARK    4  A    between atoms: C_16  and  C_20 
REMARK    5  A    between atoms: C_20  and  O_18 
ROOT
ATOM      1  C   UNL d   1     -41.547-122.692 -51.451  0.00  0.00     0.172 A 
ATOM      2  C   UNL d   1     -42.298-122.404 -51.283  0.00  0.00     0.094 A 
ATOM      3  C   UNL d   1     -42.278-123.051 -50.016  0.00  0.00     0.081 A 
ATOM      4  C   UNL d   1     -42.687-121.930 -51.841  0.00  0.00     0.286 A 
ATOM      5  N   UNL d   1     -41.183-122.515 -52.163  0.00  0.00    -0.172 NA
ATOM      6  N   UNL d   1     -42.317-121.755 -52.553  0.00  0.00    -0.152 NA
ATOM      7  C   UNL d   1     -42.663-122.582 -50.567  0.00  0.00     0.014 A 
ATOM      8  C   UNL d   1     -41.520-123.345 -50.179  0.00  0.00     0.088 A 
ATOM      9  N   UNL d   1     -41.156-123.163 -50.902  0.00  0.00    -0.226 NA
ATOM     10  C   UNL d   1     -41.567-122.047 -52.714  0.00  0.00     0.373 A 
ATOM     11  O   UNL d   1     -43.445-121.635 -51.678  0.00  0.00    -0.265 OA
ATOM     12  O   UNL d   1     -41.195-121.871 -53.431  0.00  0.00    -0.242 OA
ATOM     13  C   UNL d   1     -41.131-123.815 -49.629  0.00  0.00     0.021 C 
ENDROOT
BRANCH   3  14
ATOM     14  C   UNL d   1     -42.636-123.234 -49.299  0.00  0.00     0.302 C 
ATOM     15  O   UNL d   1     -43.321-123.701 -49.290  0.00  0.00    -0.259 OA
BRANCH  14  16
ATOM     16  O   UNL d   1     -42.319-122.955 -48.590  0.00  0.00    -0.271 OA
BRANCH  16  17
ATOM     17  C   UNL d   1     -42.762-122.997 -47.893  0.00  0.00     0.126 C 
BRANCH  17  18
ATOM     18  C   UNL d   1     -42.396-123.209 -47.184  0.00  0.00     0.027 C 
ATOM     19  C   UNL d   1     -41.970-122.652 -46.753  0.00  0.00     0.002 C 
ENDBRANCH  17  18
ENDBRANCH  16  17
ENDBRANCH  14  16
ENDBRANCH   3  14
BRANCH   7  20
ATOM     20  C   UNL d   1     -43.417-122.289 -50.406  0.00  0.00     0.001 A 
ATOM     21  C   UNL d   1     -44.082-122.739 -50.598  0.00  0.00     0.000 A 
ATOM     22  C   UNL d   1     -44.843-122.448 -50.437  0.00  0.00     0.000 A 
ATOM     23  C   UNL d   1     -44.929-121.709 -50.086  0.00  0.00     0.000 A 
ATOM     24  C   UNL d   1     -44.264-121.259 -49.893  0.00  0.00     0.000 A 
ATOM     25  C   UNL d   1     -43.505-121.554 -50.056  0.00  0.00     0.000 A 
ENDBRANCH   7  20
TORSDOF 5
ENDMDL
MODEL 3
REMARK VINA RESULT:       7.1      1.273      3.436
REMARK  5 active torsions:
REMARK  status: ('A' for Active; 'I' for Inactive)
REMARK    1  A    between atoms: C_11  and  C_3 
REMARK    2  A    between atoms: C_14  and  C_7 
REMARK    3  A    between atoms: O_18  and  C_11 
REMARK    4  A    between atoms: C_16  and  C_20 
REMARK    5  A    between atoms: C_20  and  O_18 
ROOT
ATOM      1  C   UNL d   1     -41.552-123.242 -53.541  0.00  0.00     0.172 A 
ATOM      2  C   UNL d   1     -41.604-122.425 -53.478  0.00  0.00     0.094 A 
ATOM      3  C   UNL d   1     -41.742-122.528 -52.067  0.00  0.00     0.081 A 
ATOM      4  C   UNL d   1     -41.561-121.961 -54.164  0.00  0.00     0.286 A 
ATOM      5  N   UNL d   1     -41.458-123.600 -54.272  0.00  0.00    -0.172 NA
ATOM      6  N   UNL d   1     -41.466-122.323 -54.895  0.00  0.00    -0.152 NA
ATOM      7  C   UNL d   1     -41.699-122.067 -52.743  0.00  0.00     0.014 A 
ATOM      8  C   UNL d   1     -41.690-123.353 -52.121  0.00  0.00     0.088 A 
ATOM      9  N   UNL d   1     -41.595-123.710 -52.865  0.00  0.00    -0.226 NA
ATOM     10  C   UNL d   1     -41.415-123.141 -54.949  0.00  0.00     0.373 A 
ATOM     11  O   UNL d   1     -41.613-121.135 -54.109  0.00  0.00    -0.265 OA
ATOM     12  O   UNL d   1     -41.320-123.506 -55.685  0.00  0.00    -0.242 OA
ATOM     13  C   UNL d   1     -41.733-123.817 -51.445  0.00  0.00     0.021 C 
ENDROOT
BRANCH   3  14
ATOM     14  C   UNL d   1     -41.836-122.178 -51.328  0.00  0.00     0.302 C 
ATOM     15  O   UNL d   1     -41.275-121.630 -51.060  0.00  0.00    -0.259 OA
BRANCH  14  16
ATOM     16  O   UNL d   1     -42.485-122.368 -50.855  0.00  0.00    -0.271 OA
BRANCH  16  17
ATOM     17  C   UNL d   1     -42.408-122.380 -50.032  0.00  0.00     0.126 C 
BRANCH  17  18
ATOM     18  C   UNL d   1     -43.082-122.345 -49.555  0.00  0.00     0.027 C 
ATOM     19  C   UNL d   1     -43.056-121.968 -48.825  0.00  0.00     0.002 C 
ENDBRANCH  17  18
ENDBRANCH  16  17
ENDBRANCH  14  16
ENDBRANCH   3  14
BRANCH   7  20
ATOM     20  C   UNL d   1     -41.751-121.246 -52.689  0.00  0.00     0.001 A 
ATOM     21  C   UNL d   1     -41.123-120.816 -52.368  0.00  0.00     0.000 A 
ATOM     22  C   UNL d   1     -41.171-119.989 -52.312  0.00  0.00     0.000 A 
ATOM     23  C   UNL d   1     -41.846-119.602 -52.577  0.00  0.00     0.000 A 
ATOM     24  C   UNL d   1     -42.475-120.032 -52.898  0.00  0.00     0.000 A 
ATOM     25  C   UNL d   1     -42.423-120.859 -52.953  0.00  0.00     0.000 A 
ENDBRANCH   7  20
TORSDOF 5
ENDMDL
