MODEL 1
REMARK VINA RESULT:      -8.4      0.000      0.000
REMARK  4 active torsions:
REMARK  status: ('A' for Active; 'I' for Inactive)
REMARK    1  A    between atoms: C_7  and  N_1 
REMARK    2  A    between atoms: C_10  and  C_5 
REMARK    3  A    between atoms: N_6  and  C_9 
REMARK    4  A    between atoms: O_18  and  C_13 
ROOT
ATOM      1  N   UNL d   1     -48.700  14.010  22.861  0.00  0.00    -0.279 N 
ATOM      2  C   UNL d   1     -48.080  14.517  22.664  0.00  0.00     0.206 A 
ATOM      3  N   UNL d   1     -47.393  14.106  22.756  0.00  0.00    -0.217 NA
ATOM      4  C   UNL d   1     -48.373  13.289  23.072  0.00  0.00     0.101 A 
ATOM      5  C   UNL d   1     -47.576  13.370  23.001  0.00  0.00     0.101 A 
ATOM      6  S   UNL d   1     -48.164  15.320  22.414  0.00  0.00    -0.038 SA
ENDROOT
BRANCH   5   7
ATOM      7  C   UNL d   1     -47.088  12.740  23.173  0.00  0.00     0.019 A 
ATOM      8  C   UNL d   1     -47.223  12.044  23.581  0.00  0.00     0.003 A 
ATOM      9  C   UNL d   1     -46.609  11.481  23.678  0.00  0.00     0.024 A 
ATOM     10  C   UNL d   1     -45.870  11.627  23.363  0.00  0.00     0.127 A 
ATOM     11  C   UNL d   1     -45.736  12.343  22.946  0.00  0.00     0.024 A 
ATOM     12  C   UNL d   1     -46.350  12.887  22.858  0.00  0.00     0.003 A 
BRANCH  10  13
ATOM     13  N   UNL d   1     -45.263  11.074  23.457  0.00  0.00    -0.114 N 
ATOM     14  O   UNL d   1     -44.489  11.287  23.314  0.00  0.00    -0.532 OA
ATOM     15  O   UNL d   1     -45.444  10.303  23.698  0.00  0.00    -0.532 OA
ENDBRANCH  10  13
ENDBRANCH   5   7
BRANCH   1  16
ATOM     16  C   UNL d   1     -49.497  14.266  22.825  0.00  0.00     0.088 A 
ATOM     17  C   UNL d   1     -50.032  13.901  22.313  0.00  0.00     0.110 A 
ATOM     18  C   UNL d   1     -50.798  14.153  22.283  0.00  0.00     0.026 A 
ATOM     19  C   UNL d   1     -51.064  14.779  22.763  0.00  0.00     0.002 A 
ATOM     20  C   UNL d   1     -50.540  15.154  23.281  0.00  0.00     0.002 A 
ATOM     21  C   UNL d   1     -49.741  14.883  23.304  0.00  0.00     0.020 A 
BRANCH  17  22
ATOM     22  O   UNL d   1     -49.747  13.256  21.823  0.00  0.00    -0.327 OA
ATOM     23  C   UNL d   1     -50.302  12.858  21.336  0.00  0.00     0.181 C 
ENDBRANCH  17  22
ENDBRANCH   1  16
TORSDOF 4
ENDMDL
MODEL 2
REMARK VINA RESULT:      -8.2      1.227      1.757
REMARK  4 active torsions:
REMARK  status: ('A' for Active; 'I' for Inactive)
REMARK    1  A    between atoms: C_7  and  N_1 
REMARK    2  A    between atoms: C_10  and  C_5 
REMARK    3  A    between atoms: N_6  and  C_9 
REMARK    4  A    between atoms: O_18  and  C_13 
ROOT
ATOM      1  N   UNL d   1     -49.376  13.064  22.855  0.00  0.00    -0.279 N 
ATOM      2  C   UNL d   1     -49.605  12.498  23.411  0.00  0.00     0.206 A 
ATOM      3  N   UNL d   1     -48.945  12.089  23.627  0.00  0.00    -0.217 NA
ATOM      4  C   UNL d   1     -48.568  12.985  22.742  0.00  0.00     0.101 A 
ATOM      5  C   UNL d   1     -48.327  12.386  23.222  0.00  0.00     0.101 A 
ATOM      6  S   UNL d   1     -50.393  12.382  23.694  0.00  0.00    -0.038 SA
ENDROOT
BRANCH   5   7
ATOM      7  C   UNL d   1     -47.541  12.171  23.236  0.00  0.00     0.019 A 
ATOM      8  C   UNL d   1     -46.866  12.560  22.986  0.00  0.00     0.003 A 
ATOM      9  C   UNL d   1     -46.112  12.201  23.069  0.00  0.00     0.024 A 
ATOM     10  C   UNL d   1     -46.050  11.458  23.401  0.00  0.00     0.127 A 
ATOM     11  C   UNL d   1     -46.745  11.062  23.655  0.00  0.00     0.024 A 
ATOM     12  C   UNL d   1     -47.480  11.428  23.567  0.00  0.00     0.003 A 
BRANCH  10  13
ATOM     13  N   UNL d   1     -45.309  11.103  23.483  0.00  0.00    -0.114 N 
ATOM     14  O   UNL d   1     -44.629  11.536  23.354  0.00  0.00    -0.532 OA
ATOM     15  O   UNL d   1     -45.257  10.304  23.698  0.00  0.00    -0.532 OA
ENDBRANCH  10  13
ENDBRANCH   5   7
BRANCH   1  16
ATOM     16  C   UNL d   1     -49.934  13.587  22.515  0.00  0.00     0.088 A 
ATOM     17  C   UNL d   1     -49.920  14.392  22.697  0.00  0.00     0.110 A 
ATOM     18  C   UNL d   1     -50.460  14.891  22.366  0.00  0.00     0.026 A 
ATOM     19  C   UNL d   1     -51.038  14.610  21.837  0.00  0.00     0.002 A 
ATOM     20  C   UNL d   1     -51.064  13.805  21.644  0.00  0.00     0.002 A 
ATOM     21  C   UNL d   1     -50.495  13.293  21.997  0.00  0.00     0.020 A 
BRANCH  17  22
ATOM     22  O   UNL d   1     -49.319  14.672  23.244  0.00  0.00    -0.327 OA
ATOM     23  C   UNL d   1     -49.277  15.496  23.393  0.00  0.00     0.181 C 
ENDBRANCH  17  22
ENDBRANCH   1  16
TORSDOF 4
ENDMDL
MODEL 3
REMARK VINA RESULT:      -5.7      8.721     10.174
REMARK  4 active torsions:
REMARK  status: ('A' for Active; 'I' for Inactive)
REMARK    1  A    between atoms: C_7  and  N_1 
REMARK    2  A    between atoms: C_10  and  C_5 
REMARK    3  A    between atoms: N_6  and  C_9 
REMARK    4  A    between atoms: O_18  and  C_13 
ROOT
ATOM      1  N   UNL d   1     -39.748  14.632  19.956  0.00  0.00    -0.279 N 
ATOM      2  C   UNL d   1     -40.494  14.401  19.687  0.00  0.00     0.206 A 
ATOM      3  N   UNL d   1     -40.411  14.157  18.924  0.00  0.00    -0.217 NA
ATOM      4  C   UNL d   1     -39.219  14.522  19.340  0.00  0.00     0.101 A 
ATOM      5  C   UNL d   1     -39.644  14.232  18.721  0.00  0.00     0.101 A 
ATOM      6  S   UNL d   1     -41.206  14.422  20.142  0.00  0.00    -0.038 SA
ENDROOT
BRANCH   5   7
ATOM      7  C   UNL d   1     -39.270  14.064  18.017  0.00  0.00     0.019 A 
ATOM      8  C   UNL d   1     -38.880  13.394  17.755  0.00  0.00     0.003 A 
ATOM      9  C   UNL d   1     -38.540  13.371  16.989  0.00  0.00     0.024 A 
ATOM     10  C   UNL d   1     -38.597  14.021  16.499  0.00  0.00     0.127 A 
ATOM     11  C   UNL d   1     -38.998  14.707  16.771  0.00  0.00     0.024 A 
ATOM     12  C   UNL d   1     -39.328  14.714  17.528  0.00  0.00     0.003 A 
BRANCH  10  13
ATOM     13  N   UNL d   1     -38.263  14.001  15.744  0.00  0.00    -0.114 N 
ATOM     14  O   UNL d   1     -38.160  14.692  15.322  0.00  0.00    -0.532 OA
ATOM     15  O   UNL d   1     -38.032  13.276  15.416  0.00  0.00    -0.532 OA
ENDBRANCH  10  13
ENDBRANCH   5   7
BRANCH   1  16
ATOM     16  C   UNL d   1     -39.638  14.917  20.735  0.00  0.00     0.088 A 
ATOM     17  C   UNL d   1     -39.177  14.494  21.275  0.00  0.00     0.110 A 
ATOM     18  C   UNL d   1     -39.075  14.775  22.025  0.00  0.00     0.026 A 
ATOM     19  C   UNL d   1     -39.427  15.488  22.269  0.00  0.00     0.002 A 
ATOM     20  C   UNL d   1     -39.891  15.922  21.740  0.00  0.00     0.002 A 
ATOM     21  C   UNL d   1     -39.992  15.620  20.958  0.00  0.00     0.020 A 
BRANCH  17  22
ATOM     22  O   UNL d   1     -38.818  13.760  21.012  0.00  0.00    -0.327 OA
ATOM     23  C   UNL d   1     -38.307  13.360  21.544  0.00  0.00     0.181 C 
ENDBRANCH  17  22
ENDBRANCH   1  16
TORSDOF 4
ENDMDL
MODEL 4
REMARK VINA RESULT:      -5.5      9.145     10.251
REMARK  4 active torsions:
REMARK  status: ('A' for Active; 'I' for Inactive)
REMARK    1  A    between atoms: C_7  and  N_1 
REMARK    2  A    between atoms: C_10  and  C_5 
REMARK    3  A    between atoms: N_6  and  C_9 
REMARK    4  A    between atoms: O_18  and  C_13 
ROOT
ATOM      1  N   UNL d   1     -39.361  14.516  18.133  0.00  0.00    -0.279 N 
ATOM      2  C   UNL d   1     -40.157  14.727  18.186  0.00  0.00     0.206 A 
ATOM      3  N   UNL d   1     -40.329  14.832  18.966  0.00  0.00    -0.217 NA
ATOM      4  C   UNL d   1     -39.061  14.496  18.896  0.00  0.00     0.101 A 
ATOM      5  C   UNL d   1     -39.668  14.691  19.386  0.00  0.00     0.101 A 
ATOM      6  S   UNL d   1     -40.684  14.814  17.530  0.00  0.00    -0.038 SA
ENDROOT
BRANCH   5   7
ATOM      7  C   UNL d   1     -39.544  14.720  20.191  0.00  0.00     0.019 A 
ATOM      8  C   UNL d   1     -39.591  14.144  20.770  0.00  0.00     0.003 A 
ATOM      9  C   UNL d   1     -39.431  14.332  21.572  0.00  0.00     0.024 A 
ATOM     10  C   UNL d   1     -39.227  15.095  21.778  0.00  0.00     0.127 A 
ATOM     11  C   UNL d   1     -39.179  15.683  21.181  0.00  0.00     0.024 A 
ATOM     12  C   UNL d   1     -39.339  15.483  20.396  0.00  0.00     0.003 A 
BRANCH  10  13
ATOM     13  N   UNL d   1     -39.069  15.281  22.567  0.00  0.00    -0.114 N 
ATOM     14  O   UNL d   1     -39.433  15.922  22.918  0.00  0.00    -0.532 OA
ATOM     15  O   UNL d   1     -38.540  14.816  23.002  0.00  0.00    -0.532 OA
ENDBRANCH  10  13
ENDBRANCH   5   7
BRANCH   1  16
ATOM     16  C   UNL d   1     -39.000  14.366  17.393  0.00  0.00     0.088 A 
ATOM     17  C   UNL d   1     -38.664  13.629  17.232  0.00  0.00     0.110 A 
ATOM     18  C   UNL d   1     -38.318  13.491  16.516  0.00  0.00     0.026 A 
ATOM     19  C   UNL d   1     -38.292  14.080  15.930  0.00  0.00     0.002 A 
ATOM     20  C   UNL d   1     -38.625  14.823  16.076  0.00  0.00     0.002 A 
ATOM     21  C   UNL d   1     -38.984  14.957  16.828  0.00  0.00     0.020 A 
BRANCH  17  22
ATOM     22  O   UNL d   1     -38.696  13.027  17.844  0.00  0.00    -0.327 OA
ATOM     23  C   UNL d   1     -38.314  12.296  17.697  0.00  0.00     0.181 C 
ENDBRANCH  17  22
ENDBRANCH   1  16
TORSDOF 4
ENDMDL
