MODEL 1
REMARK VINA RESULT:     101.9      0.000      0.000
REMARK  6 active torsions:
REMARK  status: ('A' for Active; 'I' for Inactive)
REMARK    1  A    between atoms: C_9  and  N_1 
REMARK    2  A    between atoms: C_8  and  C_3 
REMARK       I    between atoms: N_12  and  C_8 
REMARK    3  A    between atoms: C_17  and  C_9 
REMARK    4  A    between atoms: C_23  and  N_12 
REMARK    5  A    between atoms: C_13  and  C_23 
REMARK    6  A    between atoms: C_20  and  C_17 
ROOT
ATOM      1  N   UNL d   1      58.174  49.033  52.359  0.00  0.00    -0.273 N 
ATOM      2  C   UNL d   1      58.984  48.919  52.316  0.00  0.00     0.177 A 
ATOM      3  C   UNL d   1      59.212  48.980  51.524  0.00  0.00     0.115 A 
ATOM      4  C   UNL d   1      57.887  49.167  51.595  0.00  0.00     0.167 A 
ATOM      5  C   UNL d   1      58.530  49.134  51.078  0.00  0.00     0.123 A 
ATOM      6  N   UNL d   1      57.131  49.313  51.305  0.00  0.00    -0.225 NA
ATOM      7  N   UNL d   1      58.417  49.247  50.271  0.00  0.00    -0.241 NA
ATOM      8  C   UNL d   1      57.017  49.426  50.496  0.00  0.00     0.101 A 
ATOM      9  C   UNL d   1      57.660  49.393  49.980  0.00  0.00     0.099 A 
ATOM     10  N   UNL d   1      59.485  48.769  52.955  0.00  0.00    -0.128 N 
ATOM     11  C   UNL d   1      56.260  49.572  50.206  0.00  0.00     0.021 A 
ATOM     12  C   UNL d   1      57.546  49.506  49.172  0.00  0.00     0.021 A 
ATOM     13  C   UNL d   1      56.144  49.686  49.394  0.00  0.00     0.002 A 
ATOM     14  C   UNL d   1      56.786  49.653  48.878  0.00  0.00     0.002 A 
ENDROOT
BRANCH   1  15
ATOM     15  C   UNL d   1      57.713  49.019  53.045  0.00  0.00     0.083 C 
BRANCH  15  16
ATOM     16  C   UNL d   1      57.639  49.702  53.505  0.00  0.00     0.021 C 
BRANCH  16  17
ATOM     17  C   UNL d   1      57.507  49.631  54.315  0.00  0.00     0.029 A 
ATOM     18  C   UNL d   1      56.747  49.493  54.588  0.00  0.00     0.140 A 
ATOM     19  F   UNL d   1      56.251  49.456  53.921  0.00  0.00    -0.204 F 
ATOM     20  C   UNL d   1      56.605  49.421  55.387  0.00  0.00     0.030 A 
ATOM     21  C   UNL d   1      57.237  49.487  55.924  0.00  0.00     0.002 A 
ATOM     22  C   UNL d   1      57.995  49.625  55.643  0.00  0.00     0.000 A 
ATOM     23  C   UNL d   1      58.129  49.697  54.840  0.00  0.00     0.002 A 
ENDBRANCH  16  17
ENDBRANCH  15  16
ENDBRANCH   1  15
BRANCH   3  24
ATOM     24  C   UNL d   1      59.978  48.903  51.223  0.00  0.00     0.284 C 
ATOM     25  N   UNL d   1      60.209  48.187  50.886  0.00  0.00    -0.204 NA
ATOM     26  O   UNL d   1      60.506  49.534  51.259  0.00  0.00    -0.265 OA
BRANCH  25  27
ATOM     27  C   UNL d   1      60.983  48.107  50.581  0.00  0.00     0.127 C 
BRANCH  27  28
ATOM     28  C   UNL d   1      61.252  47.375  50.329  0.00  0.00     0.119 A 
ATOM     29  O   UNL d   1      61.412  46.729  50.814  0.00  0.00    -0.304 OA
ATOM     30  C   UNL d   1      61.669  46.110  50.332  0.00  0.00     0.123 A 
ATOM     31  C   UNL d   1      61.663  46.389  49.546  0.00  0.00     0.029 A 
ATOM     32  C   UNL d   1      61.409  47.156  49.550  0.00  0.00     0.028 A 
ENDBRANCH  27  28
ENDBRANCH  25  27
ENDBRANCH   3  24
TORSDOF 6
ENDMDL
