MODEL 1
REMARK VINA RESULT:      84.7      0.000      0.000
REMARK  5 active torsions:
REMARK  status: ('A' for Active; 'I' for Inactive)
REMARK    1  A    between atoms: C_11  and  C_8 
REMARK       I    between atoms: N_22  and  C_11 
REMARK    2  A    between atoms: N_14  and  C_24 
REMARK    3  A    between atoms: C_27  and  N_22 
REMARK    4  A    between atoms: C_24  and  C_25 
REMARK    5  A    between atoms: C_25  and  C_27 
ROOT
ATOM      1  C   UNL d   1     -55.944-100.654 -43.224  0.00  0.00     0.154 A 
ATOM      2  C   UNL d   1     -55.403-101.014 -43.732  0.00  0.00     0.093 A 
ATOM      3  N   UNL d   1     -56.378 -99.996 -43.483  0.00  0.00    -0.210 NA
ATOM      4  N   UNL d   1     -55.729-100.061 -44.753  0.00  0.00    -0.258 N 
ATOM      5  C   UNL d   1     -55.296-100.715 -44.500  0.00  0.00     0.269 A 
ATOM      6  N   UNL d   1     -55.934-101.061 -42.512  0.00  0.00    -0.285 N 
ATOM      7  C   UNL d   1     -56.270 -99.702 -44.245  0.00  0.00     0.152 A 
ATOM      8  C   UNL d   1     -55.388-101.673 -42.574  0.00  0.00     0.124 A 
ATOM      9  C   UNL d   1     -55.056-101.644 -43.337  0.00  0.00     0.030 A 
ATOM     10  C   UNL d   1     -55.620 -99.768 -45.514  0.00  0.00     0.084 A 
ATOM     11  C   UNL d   1     -56.702 -99.049 -44.498  0.00  0.00     0.038 A 
ATOM     12  C   UNL d   1     -56.053 -99.115 -45.768  0.00  0.00     0.018 A 
ATOM     13  C   UNL d   1     -56.594 -98.755 -45.260  0.00  0.00     0.005 A 
ATOM     14  O   UNL d   1     -54.754-101.074 -45.008  0.00  0.00    -0.266 OA
ATOM     15  C   UNL d   1     -56.391-100.889 -41.844  0.00  0.00     0.101 C 
ATOM     16  C   UNL d   1     -55.947 -98.813 -46.539  0.00  0.00     0.002 C 
ENDROOT
BRANCH   8  17
ATOM     17  C   UNL d   1     -55.200-102.221 -41.986  0.00  0.00     0.295 C 
ATOM     18  O   UNL d   1     -54.723-102.870 -42.163  0.00  0.00    -0.264 OA
ATOM     19  N   UNL d   1     -55.489-102.122 -41.222  0.00  0.00    -0.205 NA
BRANCH  19  20
ATOM     20  C   UNL d   1     -55.301-102.670 -40.634  0.00  0.00     0.104 C 
BRANCH  20  21
ATOM     21  C   UNL d   1     -55.382-102.467 -39.841  0.00  0.00     0.040 C 
BRANCH  21  22
ATOM     22  C   UNL d   1     -54.714-102.458 -39.342  0.00  0.00     0.083 C 
BRANCH  22  23
ATOM     23  N   UNL d   1     -54.806-102.349 -38.531  0.00  0.00    -0.285 N 
ATOM     24  C   UNL d   1     -54.811-102.876 -37.899  0.00  0.00     0.183 A 
ATOM     25  N   UNL d   1     -54.926-102.448 -37.207  0.00  0.00    -0.222 NA
ATOM     26  C   UNL d   1     -54.995-101.648 -37.399  0.00  0.00     0.120 A 
ATOM     27  C   UNL d   1     -54.919-101.589 -38.226  0.00  0.00     0.102 A 
ENDBRANCH  22  23
ENDBRANCH  21  22
ENDBRANCH  20  21
ENDBRANCH  19  20
ENDBRANCH   8  17
TORSDOF 5
ENDMDL
