MODEL 1
REMARK VINA RESULT:      -7.9      0.000      0.000
REMARK  5 active torsions:
REMARK  status: ('A' for Active; 'I' for Inactive)
REMARK    1  A    between atoms: C_9  and  C_2 
REMARK    2  A    between atoms: O_8  and  C_4 
REMARK    3  A    between atoms: C_14  and  O_8 
REMARK    4  A    between atoms: N_11  and  C_9 
REMARK    5  A    between atoms: O_20  and  C_18 
ROOT
ATOM      1  C   UNL d   1     -48.975  12.533  23.650  0.00  0.00     0.108 A 
ATOM      2  C   UNL d   1     -49.805  12.560  23.650  0.00  0.00     0.079 A 
ATOM      3  C   UNL d   1     -48.582  11.799  23.674  0.00  0.00     0.064 A 
ATOM      4  C   UNL d   1     -47.314  12.479  23.650  0.00  0.00     0.163 A 
ATOM      5  C   UNL d   1     -47.762  11.775  23.674  0.00  0.00     0.222 A 
ATOM      6  O   UNL d   1     -48.543  13.242  23.625  0.00  0.00    -0.303 OA
ATOM      7  C   UNL d   1     -47.710  13.216  23.625  0.00  0.00     0.150 A 
ATOM      8  C   UNL d   1     -49.033  11.103  23.698  0.00  0.00     0.009 A 
ATOM      9  C   UNL d   1     -50.241  11.863  23.674  0.00  0.00     0.199 A 
ATOM     10  O   UNL d   1     -47.369  11.050  23.698  0.00  0.00    -0.284 OA
ATOM     11  C   UNL d   1     -49.855  11.135  23.698  0.00  0.00     0.042 A 
ATOM     12  O   UNL d   1     -51.064  11.894  23.674  0.00  0.00    -0.286 OA
ENDROOT
BRANCH   4  13
ATOM     13  O   UNL d   1     -46.494  12.450  23.650  0.00  0.00    -0.302 OA
BRANCH  13  14
ATOM     14  C   UNL d   1     -46.066  12.889  23.099  0.00  0.00     0.102 A 
ATOM     15  C   UNL d   1     -45.501  12.517  22.630  0.00  0.00     0.049 A 
ATOM     16  C   UNL d   1     -45.073  12.955  22.079  0.00  0.00     0.096 A 
ATOM     17  C   UNL d   1     -45.210  13.764  21.998  0.00  0.00     0.024 A 
ATOM     18  C   UNL d   1     -45.784  14.135  22.476  0.00  0.00     0.004 A 
ATOM     19  C   UNL d   1     -46.206  13.694  23.021  0.00  0.00     0.025 A 
BRANCH  16  20
ATOM     20  O   UNL d   1     -44.508  12.583  21.610  0.00  0.00    -0.328 OA
ATOM     21  C   UNL d   1     -43.764  12.925  21.516  0.00  0.00     0.181 C 
ENDBRANCH  16  20
ENDBRANCH  13  14
ENDBRANCH   4  13
BRANCH   2  22
ATOM     22  C   UNL d   1     -50.187  13.282  23.626  0.00  0.00     0.086 C 
BRANCH  22  23
ATOM     23  N   UNL d   1     -50.428  13.597  22.901  0.00  0.00    -0.299 N 
ATOM     24  C   UNL d   1     -50.775  13.107  22.340  0.00  0.00     0.107 A 
ATOM     25  C   UNL d   1     -51.015  13.426  21.614  0.00  0.00     0.142 A 
ATOM     26  O   UNL d   1     -50.906  14.228  21.458  0.00  0.00    -0.300 OA
ATOM     27  C   UNL d   1     -50.557  14.716  22.026  0.00  0.00     0.142 A 
ATOM     28  C   UNL d   1     -50.317  14.400  22.748  0.00  0.00     0.107 A 
ENDBRANCH  22  23
ENDBRANCH   2  22
TORSDOF 5
ENDMDL
MODEL 2
REMARK VINA RESULT:      -7.2      1.445      2.550
REMARK  5 active torsions:
REMARK  status: ('A' for Active; 'I' for Inactive)
REMARK    1  A    between atoms: C_9  and  C_2 
REMARK    2  A    between atoms: O_8  and  C_4 
REMARK    3  A    between atoms: C_14  and  O_8 
REMARK    4  A    between atoms: N_11  and  C_9 
REMARK    5  A    between atoms: O_20  and  C_18 
ROOT
ATOM      1  C   UNL d   1     -48.367  14.159  23.059  0.00  0.00     0.108 A 
ATOM      2  C   UNL d   1     -49.091  14.532  22.895  0.00  0.00     0.079 A 
ATOM      3  C   UNL d   1     -47.657  14.478  22.761  0.00  0.00     0.064 A 
ATOM      4  C   UNL d   1     -46.918  13.415  23.388  0.00  0.00     0.163 A 
ATOM      5  C   UNL d   1     -46.943  14.108  22.924  0.00  0.00     0.222 A 
ATOM      6  O   UNL d   1     -48.358  13.470  23.521  0.00  0.00    -0.303 OA
ATOM      7  C   UNL d   1     -47.632  13.096  23.687  0.00  0.00     0.150 A 
ATOM      8  C   UNL d   1     -47.689  15.168  22.301  0.00  0.00     0.009 A 
ATOM      9  C   UNL d   1     -49.110  15.215  22.438  0.00  0.00     0.199 A 
ATOM     10  O   UNL d   1     -46.238  14.421  22.631  0.00  0.00    -0.284 OA
ATOM     11  C   UNL d   1     -48.409  15.534  22.141  0.00  0.00     0.042 A 
ATOM     12  O   UNL d   1     -49.829  15.582  22.277  0.00  0.00    -0.286 OA
ENDROOT
BRANCH   4  13
ATOM     13  O   UNL d   1     -46.202  13.048  23.549  0.00  0.00    -0.302 OA
BRANCH  13  14
ATOM     14  C   UNL d   1     -46.144  12.226  23.525  0.00  0.00     0.102 A 
ATOM     15  C   UNL d   1     -45.427  11.872  23.330  0.00  0.00     0.049 A 
ATOM     16  C   UNL d   1     -45.370  11.050  23.306  0.00  0.00     0.096 A 
ATOM     17  C   UNL d   1     -46.029  10.584  23.476  0.00  0.00     0.024 A 
ATOM     18  C   UNL d   1     -46.752  10.950  23.673  0.00  0.00     0.004 A 
ATOM     19  C   UNL d   1     -46.803  11.767  23.695  0.00  0.00     0.025 A 
BRANCH  16  20
ATOM     20  O   UNL d   1     -44.653  10.696  23.112  0.00  0.00    -0.328 OA
ATOM     21  C   UNL d   1     -44.233  10.279  23.685  0.00  0.00     0.181 C 
ENDBRANCH  16  20
ENDBRANCH  13  14
ENDBRANCH   4  13
BRANCH   2  22
ATOM     22  C   UNL d   1     -49.785  14.216  23.189  0.00  0.00     0.086 C 
BRANCH  22  23
ATOM     23  N   UNL d   1     -50.212  13.670  22.740  0.00  0.00    -0.299 N 
ATOM     24  C   UNL d   1     -50.325  13.804  21.936  0.00  0.00     0.107 A 
ATOM     25  C   UNL d   1     -50.754  13.255  21.489  0.00  0.00     0.142 A 
ATOM     26  O   UNL d   1     -51.064  12.580  21.848  0.00  0.00    -0.300 OA
ATOM     27  C   UNL d   1     -50.947  12.451  22.656  0.00  0.00     0.142 A 
ATOM     28  C   UNL d   1     -50.521  12.997  23.102  0.00  0.00     0.107 A 
ENDBRANCH  22  23
ENDBRANCH   2  22
TORSDOF 5
ENDMDL
MODEL 3
REMARK VINA RESULT:      -6.8      8.585     10.550
REMARK  5 active torsions:
REMARK  status: ('A' for Active; 'I' for Inactive)
REMARK    1  A    between atoms: C_9  and  C_2 
REMARK    2  A    between atoms: O_8  and  C_4 
REMARK    3  A    between atoms: C_14  and  O_8 
REMARK    4  A    between atoms: N_11  and  C_9 
REMARK    5  A    between atoms: O_20  and  C_18 
ROOT
ATOM      1  C   UNL d   1     -39.729  15.905  19.786  0.00  0.00     0.108 A 
ATOM      2  C   UNL d   1     -39.727  15.908  20.616  0.00  0.00     0.079 A 
ATOM      3  C   UNL d   1     -40.451  15.911  19.370  0.00  0.00     0.064 A 
ATOM      4  C   UNL d   1     -39.732  15.900  18.124  0.00  0.00     0.163 A 
ATOM      5  C   UNL d   1     -40.450  15.909  18.550  0.00  0.00     0.222 A 
ATOM      6  O   UNL d   1     -39.007  15.897  19.376  0.00  0.00    -0.303 OA
ATOM      7  C   UNL d   1     -39.007  15.895  18.543  0.00  0.00     0.150 A 
ATOM      8  C   UNL d   1     -41.161  15.920  19.800  0.00  0.00     0.009 A 
ATOM      9  C   UNL d   1     -40.438  15.916  21.031  0.00  0.00     0.199 A 
ATOM     10  O   UNL d   1     -41.163  15.915  18.135  0.00  0.00    -0.284 OA
ATOM     11  C   UNL d   1     -41.154  15.922  20.623  0.00  0.00     0.042 A 
ATOM     12  O   UNL d   1     -40.432  15.919  21.854  0.00  0.00    -0.286 OA
ENDROOT
BRANCH   4  13
ATOM     13  O   UNL d   1     -39.736  15.898  17.303  0.00  0.00    -0.302 OA
BRANCH  13  14
ATOM     14  C   UNL d   1     -39.145  15.499  16.890  0.00  0.00     0.102 A 
ATOM     15  C   UNL d   1     -39.176  14.679  16.822  0.00  0.00     0.049 A 
ATOM     16  C   UNL d   1     -38.586  14.280  16.408  0.00  0.00     0.096 A 
ATOM     17  C   UNL d   1     -37.966  14.701  16.063  0.00  0.00     0.024 A 
ATOM     18  C   UNL d   1     -37.941  15.531  16.135  0.00  0.00     0.004 A 
ATOM     19  C   UNL d   1     -38.530  15.922  16.548  0.00  0.00     0.025 A 
BRANCH  16  20
ATOM     20  O   UNL d   1     -38.616  13.460  16.341  0.00  0.00    -0.328 OA
ATOM     21  C   UNL d   1     -37.951  13.009  16.523  0.00  0.00     0.181 C 
ENDBRANCH  16  20
ENDBRANCH  13  14
ENDBRANCH   4  13
BRANCH   2  22
ATOM     22  C   UNL d   1     -39.017  15.902  21.020  0.00  0.00     0.086 C 
BRANCH  22  23
ATOM     23  N   UNL d   1     -38.767  15.215  21.404  0.00  0.00    -0.299 N 
ATOM     24  C   UNL d   1     -38.826  15.161  22.222  0.00  0.00     0.107 A 
ATOM     25  C   UNL d   1     -38.574  14.470  22.604  0.00  0.00     0.142 A 
ATOM     26  O   UNL d   1     -38.268  13.843  22.165  0.00  0.00    -0.300 OA
ATOM     27  C   UNL d   1     -38.212  13.902  21.343  0.00  0.00     0.142 A 
ATOM     28  C   UNL d   1     -38.462  14.589  20.962  0.00  0.00     0.107 A 
ENDBRANCH  22  23
ENDBRANCH   2  22
TORSDOF 5
ENDMDL
MODEL 4
REMARK VINA RESULT:      -6.4      1.842      5.094
REMARK  5 active torsions:
REMARK  status: ('A' for Active; 'I' for Inactive)
REMARK    1  A    between atoms: C_9  and  C_2 
REMARK    2  A    between atoms: O_8  and  C_4 
REMARK    3  A    between atoms: C_14  and  O_8 
REMARK    4  A    between atoms: N_11  and  C_9 
REMARK    5  A    between atoms: O_20  and  C_18 
ROOT
ATOM      1  C   UNL d   1     -46.912  12.380  22.663  0.00  0.00     0.108 A 
ATOM      2  C   UNL d   1     -46.110  12.474  22.858  0.00  0.00     0.079 A 
ATOM      3  C   UNL d   1     -47.216  12.729  21.971  0.00  0.00     0.064 A 
ATOM      4  C   UNL d   1     -48.516  12.192  22.273  0.00  0.00     0.163 A 
ATOM      5  C   UNL d   1     -48.008  12.635  21.780  0.00  0.00     0.222 A 
ATOM      6  O   UNL d   1     -47.404  11.937  23.164  0.00  0.00    -0.303 OA
ATOM      7  C   UNL d   1     -48.209  11.843  22.969  0.00  0.00     0.150 A 
ATOM      8  C   UNL d   1     -46.706  13.168  21.484  0.00  0.00     0.009 A 
ATOM      9  C   UNL d   1     -45.614  12.911  22.368  0.00  0.00     0.199 A 
ATOM     10  O   UNL d   1     -48.314  12.979  21.095  0.00  0.00    -0.284 OA
ATOM     11  C   UNL d   1     -45.912  13.258  21.681  0.00  0.00     0.042 A 
ATOM     12  O   UNL d   1     -44.820  13.003  22.564  0.00  0.00    -0.286 OA
ENDROOT
BRANCH   4  13
ATOM     13  O   UNL d   1     -49.308  12.100  22.079  0.00  0.00    -0.302 OA
BRANCH  13  14
ATOM     14  C   UNL d   1     -49.893  12.332  22.612  0.00  0.00     0.102 A 
ATOM     15  C   UNL d   1     -50.170  13.107  22.603  0.00  0.00     0.049 A 
ATOM     16  C   UNL d   1     -50.754  13.339  23.136  0.00  0.00     0.096 A 
ATOM     17  C   UNL d   1     -51.061  12.796  23.675  0.00  0.00     0.024 A 
ATOM     18  C   UNL d   1     -50.776  12.012  23.678  0.00  0.00     0.004 A 
ATOM     19  C   UNL d   1     -50.195  11.788  23.147  0.00  0.00     0.025 A 
BRANCH  16  20
ATOM     20  O   UNL d   1     -51.031  14.114  23.127  0.00  0.00    -0.328 OA
ATOM     21  C   UNL d   1     -50.760  14.652  23.690  0.00  0.00     0.181 C 
ENDBRANCH  16  20
ENDBRANCH  13  14
ENDBRANCH   4  13
BRANCH   2  22
ATOM     22  C   UNL d   1     -45.815  12.131  23.538  0.00  0.00     0.086 C 
BRANCH  22  23
ATOM     23  N   UNL d   1     -45.391  11.423  23.492  0.00  0.00    -0.299 N 
ATOM     24  C   UNL d   1     -44.603  11.435  23.260  0.00  0.00     0.107 A 
ATOM     25  C   UNL d   1     -44.181  10.724  23.214  0.00  0.00     0.142 A 
ATOM     26  O   UNL d   1     -44.551  10.011  23.401  0.00  0.00    -0.300 OA
ATOM     27  C   UNL d   1     -45.344  10.005  23.633  0.00  0.00     0.142 A 
ATOM     28  C   UNL d   1     -45.764  10.712  23.679  0.00  0.00     0.107 A 
ENDBRANCH  22  23
ENDBRANCH   2  22
TORSDOF 5
ENDMDL
MODEL 5
REMARK VINA RESULT:      -6.0      1.629      4.584
REMARK  5 active torsions:
REMARK  status: ('A' for Active; 'I' for Inactive)
REMARK    1  A    between atoms: C_9  and  C_2 
REMARK    2  A    between atoms: O_8  and  C_4 
REMARK    3  A    between atoms: C_14  and  O_8 
REMARK    4  A    between atoms: N_11  and  C_9 
REMARK    5  A    between atoms: O_20  and  C_18 
ROOT
ATOM      1  C   UNL d   1     -47.035  13.710  23.064  0.00  0.00     0.108 A 
ATOM      2  C   UNL d   1     -46.499  13.080  23.138  0.00  0.00     0.079 A 
ATOM      3  C   UNL d   1     -46.856  14.354  22.566  0.00  0.00     0.064 A 
ATOM      4  C   UNL d   1     -48.105  14.972  22.917  0.00  0.00     0.163 A 
ATOM      5  C   UNL d   1     -47.386  14.975  22.495  0.00  0.00     0.222 A 
ATOM      6  O   UNL d   1     -47.747  13.693  23.491  0.00  0.00    -0.303 OA
ATOM      7  C   UNL d   1     -48.284  14.326  23.417  0.00  0.00     0.150 A 
ATOM      8  C   UNL d   1     -46.138  14.350  22.149  0.00  0.00     0.009 A 
ATOM      9  C   UNL d   1     -45.791  13.088  22.719  0.00  0.00     0.199 A 
ATOM     10  O   UNL d   1     -47.212  15.614  22.002  0.00  0.00    -0.284 OA
ATOM     11  C   UNL d   1     -45.610  13.723  22.225  0.00  0.00     0.042 A 
ATOM     12  O   UNL d   1     -45.263  12.461  22.795  0.00  0.00    -0.286 OA
ENDROOT
BRANCH   4  13
ATOM     13  O   UNL d   1     -48.634  15.597  22.843  0.00  0.00    -0.302 OA
BRANCH  13  14
ATOM     14  C   UNL d   1     -49.444  15.460  22.897  0.00  0.00     0.102 A 
ATOM     15  C   UNL d   1     -49.848  15.138  22.256  0.00  0.00     0.049 A 
ATOM     16  C   UNL d   1     -50.659  15.001  22.310  0.00  0.00     0.096 A 
ATOM     17  C   UNL d   1     -51.064  15.186  23.005  0.00  0.00     0.024 A 
ATOM     18  C   UNL d   1     -50.649  15.511  23.650  0.00  0.00     0.004 A 
ATOM     19  C   UNL d   1     -49.843  15.645  23.590  0.00  0.00     0.025 A 
BRANCH  16  20
ATOM     20  O   UNL d   1     -51.063  14.680  21.669  0.00  0.00    -0.328 OA
ATOM     21  C   UNL d   1     -50.898  13.910  21.425  0.00  0.00     0.181 C 
ENDBRANCH  16  20
ENDBRANCH  13  14
ENDBRANCH   4  13
BRANCH   2  22
ATOM     22  C   UNL d   1     -46.678  12.451  23.627  0.00  0.00     0.086 C 
BRANCH  22  23
ATOM     23  N   UNL d   1     -47.042  11.778  23.317  0.00  0.00    -0.299 N 
ATOM     24  C   UNL d   1     -46.774  11.032  23.535  0.00  0.00     0.107 A 
ATOM     25  C   UNL d   1     -47.141  10.359  23.222  0.00  0.00     0.142 A 
ATOM     26  O   UNL d   1     -47.771  10.438  22.695  0.00  0.00    -0.300 OA
ATOM     27  C   UNL d   1     -48.037  11.190  22.479  0.00  0.00     0.142 A 
ATOM     28  C   UNL d   1     -47.672  11.861  22.791  0.00  0.00     0.107 A 
ENDBRANCH  22  23
ENDBRANCH   2  22
TORSDOF 5
ENDMDL
MODEL 6
REMARK VINA RESULT:      -5.5      8.941     10.434
REMARK  5 active torsions:
REMARK  status: ('A' for Active; 'I' for Inactive)
REMARK    1  A    between atoms: C_9  and  C_2 
REMARK    2  A    between atoms: O_8  and  C_4 
REMARK    3  A    between atoms: C_14  and  O_8 
REMARK    4  A    between atoms: N_11  and  C_9 
REMARK    5  A    between atoms: O_20  and  C_18 
ROOT
ATOM      1  C   UNL d   1     -38.939  14.769  17.946  0.00  0.00     0.108 A 
ATOM      2  C   UNL d   1     -39.263  14.941  17.200  0.00  0.00     0.079 A 
ATOM      3  C   UNL d   1     -38.600  14.022  18.091  0.00  0.00     0.064 A 
ATOM      4  C   UNL d   1     -38.292  14.424  19.437  0.00  0.00     0.163 A 
ATOM      5  C   UNL d   1     -38.281  13.854  18.827  0.00  0.00     0.222 A 
ATOM      6  O   UNL d   1     -38.958  15.346  18.542  0.00  0.00    -0.303 OA
ATOM      7  C   UNL d   1     -38.634  15.174  19.290  0.00  0.00     0.150 A 
ATOM      8  C   UNL d   1     -38.592  13.459  17.480  0.00  0.00     0.009 A 
ATOM      9  C   UNL d   1     -39.249  14.375  16.603  0.00  0.00     0.199 A 
ATOM     10  O   UNL d   1     -37.944  13.116  18.974  0.00  0.00    -0.284 OA
ATOM     11  C   UNL d   1     -38.913  13.635  16.743  0.00  0.00     0.042 A 
ATOM     12  O   UNL d   1     -39.571  14.549  15.865  0.00  0.00    -0.286 OA
ENDROOT
BRANCH   4  13
ATOM     13  O   UNL d   1     -37.972  14.253  20.173  0.00  0.00    -0.302 OA
BRANCH  13  14
ATOM     14  C   UNL d   1     -38.282  14.606  20.850  0.00  0.00     0.102 A 
ATOM     15  C   UNL d   1     -38.813  14.190  21.321  0.00  0.00     0.049 A 
ATOM     16  C   UNL d   1     -39.123  14.543  21.998  0.00  0.00     0.096 A 
ATOM     17  C   UNL d   1     -38.901  15.311  22.203  0.00  0.00     0.024 A 
ATOM     18  C   UNL d   1     -38.361  15.726  21.721  0.00  0.00     0.004 A 
ATOM     19  C   UNL d   1     -38.057  15.370  21.050  0.00  0.00     0.025 A 
BRANCH  16  20
ATOM     20  O   UNL d   1     -39.655  14.128  22.470  0.00  0.00    -0.328 OA
ATOM     21  C   UNL d   1     -39.386  13.509  22.943  0.00  0.00     0.181 C 
ENDBRANCH  16  20
ENDBRANCH  13  14
ENDBRANCH   4  13
BRANCH   2  22
ATOM     22  C   UNL d   1     -39.595  15.674  17.062  0.00  0.00     0.086 C 
BRANCH  22  23
ATOM     23  N   UNL d   1     -40.416  15.757  17.042  0.00  0.00    -0.299 N 
ATOM     24  C   UNL d   1     -40.800  15.839  16.319  0.00  0.00     0.107 A 
ATOM     25  C   UNL d   1     -41.623  15.922  16.302  0.00  0.00     0.142 A 
ATOM     26  O   UNL d   1     -42.054  15.922  17.006  0.00  0.00    -0.300 OA
ATOM     27  C   UNL d   1     -41.664  15.839  17.729  0.00  0.00     0.142 A 
ATOM     28  C   UNL d   1     -40.844  15.757  17.747  0.00  0.00     0.107 A 
ENDBRANCH  22  23
ENDBRANCH   2  22
TORSDOF 5
ENDMDL
