MODEL 1
REMARK VINA RESULT:      59.0      0.000      0.000
REMARK  5 active torsions:
REMARK  status: ('A' for Active; 'I' for Inactive)
REMARK    1  A    between atoms: C_10  and  C_4 
REMARK    2  A    between atoms: N_11  and  C_7 
REMARK    3  A    between atoms: C_13  and  N_11 
REMARK    4  A    between atoms: C_15  and  C_13 
REMARK    5  A    between atoms: O_25  and  C_17 
ROOT
ATOM      1  C   UNL d   1      13.643  13.089  -2.970  0.00  0.00     0.186 A 
ATOM      2  N   UNL d   1      13.340  12.986  -3.745  0.00  0.00    -0.193 N 
ATOM      3  N   UNL d   1      13.822  13.853  -2.703  0.00  0.00    -0.206 NA
ATOM      4  C   UNL d   1      13.698  12.338  -2.623  0.00  0.00     0.140 A 
ATOM      5  N   UNL d   1      13.213  12.174  -3.864  0.00  0.00    -0.058 NA
ATOM      6  N   UNL d   1      13.435  11.779  -3.170  0.00  0.00    -0.127 NA
ATOM      7  C   UNL d   1      13.706  14.509  -3.186  0.00  0.00     0.166 A 
ATOM      8  C   UNL d   1      13.405  14.397  -3.952  0.00  0.00     0.054 A 
ATOM      9  C   UNL d   1      13.224  13.642  -4.229  0.00  0.00     0.089 A 
ATOM     10  C   UNL d   1      13.289  15.053  -4.436  0.00  0.00     0.005 A 
ATOM     11  C   UNL d   1      12.926  13.542  -4.990  0.00  0.00     0.019 A 
ATOM     12  C   UNL d   1      12.991  14.953  -5.198  0.00  0.00     0.000 A 
ATOM     13  C   UNL d   1      12.810  14.198  -5.474  0.00  0.00     0.002 A 
ENDROOT
BRANCH   7  14
ATOM     14  N   UNL d   1      13.883  15.269  -2.921  0.00  0.00    -0.225 NA
BRANCH  14  15
ATOM     15  C   UNL d   1      14.674  15.497  -2.831  0.00  0.00     0.101 C 
BRANCH  15  16
ATOM     16  C   UNL d   1      14.895  16.010  -2.224  0.00  0.00     0.019 A 
ATOM     17  C   UNL d   1      14.809  16.824  -2.318  0.00  0.00     0.004 A 
ATOM     18  C   UNL d   1      15.031  17.336  -1.711  0.00  0.00     0.024 A 
ATOM     19  C   UNL d   1      15.343  17.026  -1.003  0.00  0.00     0.094 A 
ATOM     20  C   UNL d   1      15.426  16.205  -0.917  0.00  0.00     0.024 A 
ATOM     21  C   UNL d   1      15.201  15.702  -1.531  0.00  0.00     0.004 A 
BRANCH  19  22
ATOM     22  O   UNL d   1      15.566  17.536  -0.394  0.00  0.00    -0.328 OA
ATOM     23  C   UNL d   1      15.641  18.345  -0.545  0.00  0.00     0.181 C 
ENDBRANCH  19  22
ENDBRANCH  15  16
ENDBRANCH  14  15
ENDBRANCH   7  14
BRANCH   4  24
ATOM     24  C   UNL d   1      13.969  12.188  -1.865  0.00  0.00     0.025 A 
ATOM     25  C   UNL d   1      14.767  12.296  -1.690  0.00  0.00     0.031 A 
ATOM     26  C   UNL d   1      15.049  12.145  -0.923  0.00  0.00     0.140 A 
ATOM     27  F   UNL d   1      15.846  12.254  -0.749  0.00  0.00    -0.204 F 
ATOM     28  C   UNL d   1      14.524  11.886  -0.341  0.00  0.00     0.030 A 
ATOM     29  C   UNL d   1      13.720  11.779  -0.526  0.00  0.00     0.002 A 
ATOM     30  C   UNL d   1      13.448  11.930  -1.284  0.00  0.00     0.002 A 
ENDBRANCH   4  24
TORSDOF 5
ENDMDL
