MODEL 1
REMARK VINA RESULT:      -3.1      0.000      0.000
REMARK  9 active torsions:
REMARK  status: ('A' for Active; 'I' for Inactive)
REMARK    1  A    between atoms: N_2  and  S_1 
REMARK    2  A    between atoms: C_5  and  S_1 
REMARK    3  A    between atoms: C_15  and  C_3 
REMARK       I    between atoms: C_4  and  N_11 
REMARK    4  A    between atoms: C_7  and  C_4 
REMARK       I    between atoms: N_22  and  C_7 
REMARK    5  A    between atoms: N_8  and  C_28 
REMARK    6  A    between atoms: N_11  and  C_15 
REMARK    7  A    between atoms: C_30  and  N_22 
REMARK    8  A    between atoms: C_28  and  C_29 
REMARK    9  A    between atoms: C_29  and  C_30 
ROOT
ATOM      1  N   UNL d   1      31.914  16.159 -24.608  0.00  0.00    -0.207 N 
ATOM      2  C   UNL d   1      32.518  16.711 -24.595  0.00  0.00     0.197 A 
ATOM      3  O   UNL d   1      33.210  16.371 -24.884  0.00  0.00    -0.285 OA
ATOM      4  C   UNL d   1      32.231  15.455 -24.912  0.00  0.00     0.120 A 
ATOM      5  C   UNL d   1      33.034  15.579 -25.085  0.00  0.00     0.144 A 
ENDROOT
BRANCH   2   6
ATOM      6  C   UNL d   1      32.451  17.491 -24.334  0.00  0.00     0.146 C 
BRANCH   6   7
ATOM      7  N   UNL d   1      32.695  18.115 -24.812  0.00  0.00    -0.199 NA
ATOM      8  C   UNL d   1      32.988  18.800 -24.471  0.00  0.00     0.337 C 
ATOM      9  O   UNL d   1      33.232  19.424 -24.950  0.00  0.00    -0.260 OA
BRANCH   8  10
ATOM     10  C   UNL d   1      33.041  18.871 -23.650  0.00  0.00     0.337 C 
ATOM     11  O   UNL d   1      33.121  18.195 -23.188  0.00  0.00    -0.260 OA
ATOM     12  N   UNL d   1      33.015  19.601 -23.298  0.00  0.00    -0.202 NA
BRANCH  12  13
ATOM     13  C   UNL d   1      33.067  19.678 -22.475  0.00  0.00     0.104 C 
BRANCH  13  14
ATOM     14  C   UNL d   1      32.900  20.391 -22.107  0.00  0.00     0.040 C 
BRANCH  14  15
ATOM     15  C   UNL d   1      32.944  20.466 -21.299  0.00  0.00     0.083 C 
BRANCH  15  16
ATOM     16  N   UNL d   1      32.800  21.185 -20.932  0.00  0.00    -0.285 N 
ATOM     17  C   UNL d   1      33.190  21.287 -20.209  0.00  0.00     0.183 A 
ATOM     18  N   UNL d   1      32.995  22.029 -19.907  0.00  0.00    -0.222 NA
ATOM     19  C   UNL d   1      32.481  22.391 -20.443  0.00  0.00     0.120 A 
ATOM     20  C   UNL d   1      32.360  21.871 -21.075  0.00  0.00     0.102 A 
ENDBRANCH  15  16
ENDBRANCH  14  15
ENDBRANCH  13  14
ENDBRANCH  12  13
ENDBRANCH   8  10
ENDBRANCH   6   7
ENDBRANCH   2   6
BRANCH   1  21
ATOM     21  S   UNL d   1      31.139  16.273 -24.368  0.00  0.00     0.273 S 
ATOM     22  O   UNL d   1      31.314  15.935 -23.641  0.00  0.00    -0.200 OA
ATOM     23  O   UNL d   1      30.963  16.612 -25.095  0.00  0.00    -0.200 OA
BRANCH  21  24
ATOM     24  C   UNL d   1      30.362  16.388 -24.127  0.00  0.00     0.104 A 
ATOM     25  C   UNL d   1      29.855  16.881 -24.574  0.00  0.00     0.013 A 
ATOM     26  C   UNL d   1      29.078  16.995 -24.334  0.00  0.00     0.007 A 
ATOM     27  C   UNL d   1      28.794  16.622 -23.645  0.00  0.00     0.035 A 
ATOM     28  C   UNL d   1      29.300  16.136 -23.205  0.00  0.00     0.007 A 
ATOM     29 BR   UNL d   1      28.015  16.735 -23.400  0.00  0.00    -0.049 Br
ATOM     30  C   UNL d   1      30.076  16.021 -23.446  0.00  0.00     0.013 A 
ENDBRANCH  21  24
ENDBRANCH   1  21
TORSDOF 9
ENDMDL
