MODEL 1
REMARK VINA RESULT:      -2.9      0.000      0.000
REMARK  4 active torsions:
REMARK  status: ('A' for Active; 'I' for Inactive)
REMARK    1  A    between atoms: N_5  and  S_1 
REMARK    2  A    between atoms: C_8  and  S_1 
REMARK    3  A    between atoms: C_2  and  C_7 
REMARK    4  A    between atoms: C_11  and  N_5 
ROOT
ATOM      1  C   UNL d   1      33.058  20.449 -22.763  0.00  0.00     0.025 A 
ATOM      2  C   UNL d   1      33.144  19.640 -22.625  0.00  0.00     0.020 A 
ATOM      3  C   UNL d   1      33.136  19.107 -23.248  0.00  0.00     0.094 A 
ATOM      4  C   UNL d   1      32.963  20.733 -23.530  0.00  0.00     0.002 A 
ATOM      5  C   UNL d   1      33.039  19.397 -24.024  0.00  0.00     0.020 A 
ATOM      6  C   UNL d   1      33.239  19.363 -21.850  0.00  0.00     0.002 C 
ATOM      7  C   UNL d   1      32.953  20.211 -24.159  0.00  0.00     0.002 A 
ENDROOT
BRANCH   3   8
ATOM      8  N   UNL d   1      33.220  18.306 -23.116  0.00  0.00    -0.158 NA
BRANCH   8   9
ATOM      9  S   UNL d   1      32.732  17.769 -23.505  0.00  0.00     0.285 S 
ATOM     10  O   UNL d   1      32.228  17.765 -22.846  0.00  0.00    -0.198 OA
ATOM     11  O   UNL d   1      33.241  17.780 -24.159  0.00  0.00    -0.198 OA
BRANCH   9  12
ATOM     12  C   UNL d   1      32.240  17.231 -23.892  0.00  0.00     0.107 A 
ATOM     13  C   UNL d   1      31.425  17.377 -23.929  0.00  0.00     0.040 A 
ATOM     14  C   UNL d   1      30.945  16.832 -24.318  0.00  0.00     0.123 A 
ATOM     15  O   UNL d   1      30.139  16.965 -24.361  0.00  0.00    -0.301 OA
ATOM     16  C   UNL d   1      31.265  16.155 -24.665  0.00  0.00     0.123 A 
ATOM     17  C   UNL d   1      29.646  16.430 -24.746  0.00  0.00     0.149 A 
ATOM     18  C   UNL d   1      29.973  15.755 -25.091  0.00  0.00     0.149 A 
ATOM     19  O   UNL d   1      30.779  15.622 -25.048  0.00  0.00    -0.301 OA
ATOM     20  C   UNL d   1      32.074  16.023 -24.622  0.00  0.00     0.028 A 
ATOM     21  C   UNL d   1      32.566  16.560 -24.235  0.00  0.00     0.015 A 
ENDBRANCH   9  12
ENDBRANCH   8   9
ENDBRANCH   3   8
BRANCH   1  22
ATOM     22  C   UNL d   1      33.068  20.982 -22.119  0.00  0.00     0.112 A 
ATOM     23  S   UNL d   1      33.194  21.793 -22.166  0.00  0.00    -0.047 SA
ATOM     24  C   UNL d   1      33.159  22.109 -21.397  0.00  0.00     0.130 A 
ATOM     25  N   UNL d   1      33.239  22.865 -21.096  0.00  0.00    -0.236 NA
ATOM     26  C   UNL d   1      33.008  21.470 -20.878  0.00  0.00     0.106 A 
ATOM     27  C   UNL d   1      33.172  22.999 -20.291  0.00  0.00     0.100 A 
ATOM     28  C   UNL d   1      33.024  22.374 -19.776  0.00  0.00     0.022 A 
ATOM     29  C   UNL d   1      32.942  21.611 -20.067  0.00  0.00     0.023 A 
ATOM     30  N   UNL d   1      32.952  20.772 -21.326  0.00  0.00    -0.237 NA
ENDBRANCH   1  22
TORSDOF 4
ENDMDL
MODEL 2
REMARK VINA RESULT:      -2.5      0.965      1.350
REMARK  4 active torsions:
REMARK  status: ('A' for Active; 'I' for Inactive)
REMARK    1  A    between atoms: N_5  and  S_1 
REMARK    2  A    between atoms: C_8  and  S_1 
REMARK    3  A    between atoms: C_2  and  C_7 
REMARK    4  A    between atoms: C_11  and  N_5 
ROOT
ATOM      1  C   UNL d   1      33.004  21.415 -22.167  0.00  0.00     0.025 A 
ATOM      2  C   UNL d   1      33.067  20.597 -22.082  0.00  0.00     0.020 A 
ATOM      3  C   UNL d   1      33.177  20.117 -22.738  0.00  0.00     0.094 A 
ATOM      4  C   UNL d   1      33.051  21.762 -22.912  0.00  0.00     0.002 A 
ATOM      5  C   UNL d   1      33.225  20.471 -23.492  0.00  0.00     0.020 A 
ATOM      6  C   UNL d   1      33.018  20.256 -21.329  0.00  0.00     0.002 C 
ATOM      7  C   UNL d   1      33.161  21.294 -23.573  0.00  0.00     0.002 A 
ENDROOT
BRANCH   3   8
ATOM      8  N   UNL d   1      33.240  19.307 -22.659  0.00  0.00    -0.158 NA
BRANCH   8   9
ATOM      9  S   UNL d   1      32.796  18.809 -23.143  0.00  0.00     0.285 S 
ATOM     10  O   UNL d   1      33.241  19.064 -23.796  0.00  0.00    -0.198 OA
ATOM     11  O   UNL d   1      32.357  18.561 -22.485  0.00  0.00    -0.198 OA
BRANCH   9  12
ATOM     12  C   UNL d   1      32.353  18.312 -23.630  0.00  0.00     0.107 A 
ATOM     13  C   UNL d   1      32.173  17.544 -23.373  0.00  0.00     0.040 A 
ATOM     14  C   UNL d   1      31.730  17.058 -23.869  0.00  0.00     0.123 A 
ATOM     15  O   UNL d   1      31.545  16.299 -23.627  0.00  0.00    -0.301 OA
ATOM     16  C   UNL d   1      31.470  17.324 -24.606  0.00  0.00     0.123 A 
ATOM     17  C   UNL d   1      31.104  15.800 -24.111  0.00  0.00     0.149 A 
ATOM     18  C   UNL d   1      30.848  16.074 -24.846  0.00  0.00     0.149 A 
ATOM     19  O   UNL d   1      31.033  16.832 -25.088  0.00  0.00    -0.301 OA
ATOM     20  C   UNL d   1      31.657  18.086 -24.848  0.00  0.00     0.028 A 
ATOM     21  C   UNL d   1      32.099  18.584 -24.362  0.00  0.00     0.015 A 
ENDBRANCH   9  12
ENDBRANCH   8   9
ENDBRANCH   3   8
BRANCH   1  22
ATOM     22  C   UNL d   1      32.891  21.893 -21.490  0.00  0.00     0.112 A 
ATOM     23  S   UNL d   1      32.454  22.589 -21.459  0.00  0.00    -0.047 SA
ATOM     24  C   UNL d   1      32.487  22.885 -20.681  0.00  0.00     0.130 A 
ATOM     25  N   UNL d   1      32.170  23.543 -20.316  0.00  0.00    -0.236 NA
ATOM     26  C   UNL d   1      32.956  22.351 -20.238  0.00  0.00     0.106 A 
ATOM     27  C   UNL d   1      32.308  23.684 -19.521  0.00  0.00     0.100 A 
ATOM     28  C   UNL d   1      32.768  23.162 -19.080  0.00  0.00     0.022 A 
ATOM     29  C   UNL d   1      33.092  22.497 -19.436  0.00  0.00     0.023 A 
ATOM     30  N   UNL d   1      33.206  21.738 -20.739  0.00  0.00    -0.237 NA
ENDBRANCH   1  22
TORSDOF 4
ENDMDL
MODEL 3
REMARK VINA RESULT:       0.0      2.051      5.697
REMARK  4 active torsions:
REMARK  status: ('A' for Active; 'I' for Inactive)
REMARK    1  A    between atoms: N_5  and  S_1 
REMARK    2  A    between atoms: C_8  and  S_1 
REMARK    3  A    between atoms: C_2  and  C_7 
REMARK    4  A    between atoms: C_11  and  N_5 
ROOT
ATOM      1  C   UNL d   1      32.104  18.686 -23.735  0.00  0.00     0.025 A 
ATOM      2  C   UNL d   1      32.452  18.936 -23.030  0.00  0.00     0.020 A 
ATOM      3  C   UNL d   1      32.895  19.626 -23.004  0.00  0.00     0.094 A 
ATOM      4  C   UNL d   1      32.197  19.126 -24.424  0.00  0.00     0.002 A 
ATOM      5  C   UNL d   1      32.987  20.071 -23.704  0.00  0.00     0.020 A 
ATOM      6  C   UNL d   1      32.354  18.487 -22.341  0.00  0.00     0.002 C 
ATOM      7  C   UNL d   1      32.636  19.816 -24.411  0.00  0.00     0.002 A 
ENDROOT
BRANCH   3   8
ATOM      8  N   UNL d   1      33.240  19.877 -22.309  0.00  0.00    -0.158 NA
BRANCH   8   9
ATOM      9  S   UNL d   1      33.075  20.627 -22.012  0.00  0.00     0.285 S 
ATOM     10  O   UNL d   1      32.911  20.288 -21.273  0.00  0.00    -0.198 OA
ATOM     11  O   UNL d   1      33.240  20.958 -22.755  0.00  0.00    -0.198 OA
BRANCH   9  12
ATOM     12  C   UNL d   1      32.908  21.378 -21.712  0.00  0.00     0.107 A 
ATOM     13  C   UNL d   1      32.576  21.450 -20.956  0.00  0.00     0.040 A 
ATOM     14  C   UNL d   1      32.414  22.205 -20.668  0.00  0.00     0.123 A 
ATOM     15  O   UNL d   1      32.087  22.289 -19.923  0.00  0.00    -0.301 OA
ATOM     16  C   UNL d   1      32.578  22.876 -21.118  0.00  0.00     0.123 A 
ATOM     17  C   UNL d   1      31.919  23.036 -19.621  0.00  0.00     0.149 A 
ATOM     18  C   UNL d   1      32.086  23.702 -20.077  0.00  0.00     0.149 A 
ATOM     19  O   UNL d   1      32.413  23.619 -20.822  0.00  0.00    -0.301 OA
ATOM     20  C   UNL d   1      32.907  22.791 -21.866  0.00  0.00     0.028 A 
ATOM     21  C   UNL d   1      33.074  22.041 -22.166  0.00  0.00     0.015 A 
ENDBRANCH   9  12
ENDBRANCH   8   9
ENDBRANCH   3   8
BRANCH   1  22
ATOM     22  C   UNL d   1      31.656  17.980 -23.747  0.00  0.00     0.112 A 
ATOM     23  S   UNL d   1      31.907  17.245 -23.477  0.00  0.00    -0.047 SA
ATOM     24  C   UNL d   1      31.290  16.699 -23.593  0.00  0.00     0.130 A 
ATOM     25  N   UNL d   1      31.210  15.901 -23.438  0.00  0.00    -0.236 NA
ATOM     26  C   UNL d   1      30.655  17.119 -23.941  0.00  0.00     0.106 A 
ATOM     27  C   UNL d   1      30.513  15.511 -23.622  0.00  0.00     0.100 A 
ATOM     28  C   UNL d   1      29.885  15.919 -23.964  0.00  0.00     0.022 A 
ATOM     29  C   UNL d   1      29.955  16.721 -24.124  0.00  0.00     0.023 A 
ATOM     30  N   UNL d   1      30.882  17.912 -24.036  0.00  0.00    -0.237 NA
ENDBRANCH   1  22
TORSDOF 4
ENDMDL
