MODEL 1
REMARK VINA RESULT:      -4.9      0.000      0.000
REMARK  2 active torsions:
REMARK  status: ('A' for Active; 'I' for Inactive)
REMARK    1  A    between atoms: N_7  and  C_2 
REMARK    2  A    between atoms: C_10  and  N_7 
ROOT
ATOM      1  N   UNL d   1      58.507   0.616  31.088  0.00  0.00     0.002 N 
ATOM      2  C   UNL d   1      57.713   0.551  31.303  0.00  0.00     0.773 A 
ATOM      3  C   UNL d   1      58.708   0.613  30.291  0.00  0.00     0.317 A 
ATOM      4  N   UNL d   1      57.123   0.483  30.718  0.00  0.00     0.046 NA
ATOM      5  N   UNL d   1      57.335   0.482  29.927  0.00  0.00    -0.127 NA
ATOM      6  C   UNL d   1      58.118   0.545  29.706  0.00  0.00     0.162 A 
ATOM      7  O   UNL d   1      59.529   0.680  30.082  0.00  0.00    -0.263 OA
ATOM      8  N   UNL d   1      59.086   0.682  31.662  0.00  0.00    -0.023 N 
ATOM      9  C   UNL d   1      58.330   0.543  28.894  0.00  0.00     0.028 C 
ENDROOT
BRANCH   2  10
ATOM     10  N   UNL d   1      57.515   0.555  32.129  0.00  0.00    -0.058 NA
BRANCH  10  11
ATOM     11  C   UNL d   1      56.849   0.143  32.415  0.00  0.00     0.100 A 
ATOM     12  C   UNL d   1      56.210   0.565  32.694  0.00  0.00     0.020 A 
ATOM     13  C   UNL d   1      55.541   0.152  32.981  0.00  0.00     0.002 A 
ATOM     14  C   UNL d   1      55.543  -0.665  32.977  0.00  0.00     0.000 A 
ATOM     15  C   UNL d   1      56.183  -1.083  32.699  0.00  0.00     0.002 A 
ATOM     16  C   UNL d   1      56.852  -0.669  32.411  0.00  0.00     0.020 A 
ENDBRANCH  10  11
ENDBRANCH   2  10
TORSDOF 2
ENDMDL
MODEL 2
REMARK VINA RESULT:      -4.3      1.543      3.435
REMARK  2 active torsions:
REMARK  status: ('A' for Active; 'I' for Inactive)
REMARK    1  A    between atoms: N_7  and  C_2 
REMARK    2  A    between atoms: C_10  and  N_7 
ROOT
ATOM      1  N   UNL d   1      57.149   0.055  32.604  0.00  0.00     0.002 N 
ATOM      2  C   UNL d   1      57.329  -0.112  31.817  0.00  0.00     0.773 A 
ATOM      3  C   UNL d   1      56.602  -0.415  32.999  0.00  0.00     0.317 A 
ATOM      4  N   UNL d   1      56.961  -0.749  31.427  0.00  0.00     0.046 NA
ATOM      5  N   UNL d   1      56.418  -1.211  31.830  0.00  0.00    -0.127 NA
ATOM      6  C   UNL d   1      56.234  -1.053  32.609  0.00  0.00     0.162 A 
ATOM      7  O   UNL d   1      56.424  -0.233  33.810  0.00  0.00    -0.263 OA
ATOM      8  N   UNL d   1      57.511   0.681  32.987  0.00  0.00    -0.023 N 
ATOM      9  C   UNL d   1      55.676  -1.529  33.018  0.00  0.00     0.028 C 
ENDROOT
BRANCH   2  10
ATOM     10  N   UNL d   1      57.896   0.380  31.418  0.00  0.00    -0.058 NA
BRANCH  10  11
ATOM     11  C   UNL d   1      58.070   0.269  30.611  0.00  0.00     0.100 A 
ATOM     12  C   UNL d   1      58.662  -0.251  30.399  0.00  0.00     0.020 A 
ATOM     13  C   UNL d   1      58.837  -0.362  29.588  0.00  0.00     0.002 A 
ATOM     14  C   UNL d   1      58.413   0.053  29.026  0.00  0.00     0.000 A 
ATOM     15  C   UNL d   1      57.824   0.571  29.241  0.00  0.00     0.002 A 
ATOM     16  C   UNL d   1      57.649   0.682  30.052  0.00  0.00     0.020 A 
ENDBRANCH  10  11
ENDBRANCH   2  10
TORSDOF 2
ENDMDL
MODEL 3
REMARK VINA RESULT:      -4.1      1.430      1.692
REMARK  2 active torsions:
REMARK  status: ('A' for Active; 'I' for Inactive)
REMARK    1  A    between atoms: N_7  and  C_2 
REMARK    2  A    between atoms: C_10  and  N_7 
ROOT
ATOM      1  N   UNL d   1      58.254  -0.107  29.814  0.00  0.00     0.002 N 
ATOM      2  C   UNL d   1      57.726  -0.312  30.413  0.00  0.00     0.773 A 
ATOM      3  C   UNL d   1      58.643  -0.703  29.401  0.00  0.00     0.317 A 
ATOM      4  N   UNL d   1      57.589  -1.113  30.598  0.00  0.00     0.046 NA
ATOM      5  N   UNL d   1      57.982  -1.698  30.181  0.00  0.00    -0.127 NA
ATOM      6  C   UNL d   1      58.506  -1.503  29.586  0.00  0.00     0.162 A 
ATOM      7  O   UNL d   1      59.185  -0.480  28.786  0.00  0.00    -0.263 OA
ATOM      8  N   UNL d   1      58.389   0.679  29.632  0.00  0.00    -0.023 N 
ATOM      9  C   UNL d   1      58.907  -2.107  29.161  0.00  0.00     0.028 C 
ENDROOT
BRANCH   2  10
ATOM     10  N   UNL d   1      57.329   0.311  30.833  0.00  0.00    -0.058 NA
BRANCH  10  11
ATOM     11  C   UNL d   1      57.138   0.233  31.641  0.00  0.00     0.100 A 
ATOM     12  C   UNL d   1      57.634   0.559  32.200  0.00  0.00     0.020 A 
ATOM     13  C   UNL d   1      57.443   0.481  33.011  0.00  0.00     0.002 A 
ATOM     14  C   UNL d   1      56.764   0.081  33.226  0.00  0.00     0.000 A 
ATOM     15  C   UNL d   1      56.271  -0.243  32.665  0.00  0.00     0.002 A 
ATOM     16  C   UNL d   1      56.463  -0.165  31.854  0.00  0.00     0.020 A 
ENDBRANCH  10  11
ENDBRANCH   2  10
TORSDOF 2
ENDMDL
MODEL 4
REMARK VINA RESULT:      -3.5      1.212      1.655
REMARK  2 active torsions:
REMARK  status: ('A' for Active; 'I' for Inactive)
REMARK    1  A    between atoms: N_7  and  C_2 
REMARK    2  A    between atoms: C_10  and  N_7 
ROOT
ATOM      1  N   UNL d   1      57.330  -0.830  31.175  0.00  0.00     0.002 N 
ATOM      2  C   UNL d   1      57.170  -0.394  31.858  0.00  0.00     0.773 A 
ATOM      3  C   UNL d   1      57.813  -0.503  30.595  0.00  0.00     0.317 A 
ATOM      4  N   UNL d   1      57.494   0.367  31.957  0.00  0.00     0.046 NA
ATOM      5  N   UNL d   1      57.974   0.682  31.373  0.00  0.00    -0.127 NA
ATOM      6  C   UNL d   1      58.138   0.258  30.695  0.00  0.00     0.162 A 
ATOM      7  O   UNL d   1      57.972  -0.960  29.897  0.00  0.00    -0.263 OA
ATOM      8  N   UNL d   1      57.012  -1.577  31.077  0.00  0.00    -0.023 N 
ATOM      9  C   UNL d   1      58.630   0.586  30.100  0.00  0.00     0.028 C 
ENDROOT
BRANCH   2  10
ATOM     10  N   UNL d   1      56.669  -0.741  32.451  0.00  0.00    -0.058 NA
BRANCH  10  11
ATOM     11  C   UNL d   1      56.273  -0.268  33.010  0.00  0.00     0.100 A 
ATOM     12  C   UNL d   1      55.465  -0.171  32.948  0.00  0.00     0.020 A 
ATOM     13  C   UNL d   1      55.066   0.304  33.510  0.00  0.00     0.002 A 
ATOM     14  C   UNL d   1      55.493   0.661  34.108  0.00  0.00     0.000 A 
ATOM     15  C   UNL d   1      56.299   0.562  34.166  0.00  0.00     0.002 A 
ATOM     16  C   UNL d   1      56.697   0.087  33.604  0.00  0.00     0.020 A 
ENDBRANCH  10  11
ENDBRANCH   2  10
TORSDOF 2
ENDMDL
MODEL 5
REMARK VINA RESULT:      -3.5      2.137      3.811
REMARK  2 active torsions:
REMARK  status: ('A' for Active; 'I' for Inactive)
REMARK    1  A    between atoms: N_7  and  C_2 
REMARK    2  A    between atoms: C_10  and  N_7 
ROOT
ATOM      1  N   UNL d   1      57.826  -0.033  30.462  0.00  0.00     0.002 N 
ATOM      2  C   UNL d   1      57.993  -0.739  30.069  0.00  0.00     0.773 A 
ATOM      3  C   UNL d   1      57.362  -0.052  31.141  0.00  0.00     0.317 A 
ATOM      4  N   UNL d   1      57.696  -1.462  30.357  0.00  0.00     0.046 NA
ATOM      5  N   UNL d   1      57.235  -1.469  31.034  0.00  0.00    -0.127 NA
ATOM      6  C   UNL d   1      57.064  -0.775  31.429  0.00  0.00     0.162 A 
ATOM      7  O   UNL d   1      57.196   0.681  31.538  0.00  0.00    -0.263 OA
ATOM      8  N   UNL d   1      58.119   0.677  30.180  0.00  0.00    -0.023 N 
ATOM      9  C   UNL d   1      56.591  -0.788  32.122  0.00  0.00     0.028 C 
ENDROOT
BRANCH   2  10
ATOM     10  N   UNL d   1      58.474  -0.709  29.369  0.00  0.00    -0.058 NA
BRANCH  10  11
ATOM     11  C   UNL d   1      58.972  -1.342  29.160  0.00  0.00     0.100 A 
ATOM     12  C   UNL d   1      59.762  -1.310  29.360  0.00  0.00     0.020 A 
ATOM     13  C   UNL d   1      60.263  -1.947  29.150  0.00  0.00     0.002 A 
ATOM     14  C   UNL d   1      59.951  -2.587  28.749  0.00  0.00     0.000 A 
ATOM     15  C   UNL d   1      59.162  -2.616  28.552  0.00  0.00     0.002 A 
ATOM     16  C   UNL d   1      58.661  -1.979  28.762  0.00  0.00     0.020 A 
ENDBRANCH  10  11
ENDBRANCH   2  10
TORSDOF 2
ENDMDL
MODEL 6
REMARK VINA RESULT:      -3.3      2.766      4.307
REMARK  2 active torsions:
REMARK  status: ('A' for Active; 'I' for Inactive)
REMARK    1  A    between atoms: N_7  and  C_2 
REMARK    2  A    between atoms: C_10  and  N_7 
ROOT
ATOM      1  N   UNL d   1      55.721   0.669  34.738  0.00  0.00     0.002 N 
ATOM      2  C   UNL d   1      55.770   0.671  33.914  0.00  0.00     0.773 A 
ATOM      3  C   UNL d   1      54.980   0.673  35.095  0.00  0.00     0.317 A 
ATOM      4  N   UNL d   1      55.077   0.676  33.451  0.00  0.00     0.046 NA
ATOM      5  N   UNL d   1      54.345   0.680  33.818  0.00  0.00    -0.127 NA
ATOM      6  C   UNL d   1      54.287   0.678  34.632  0.00  0.00     0.162 A 
ATOM      7  O   UNL d   1      54.941   0.671  35.944  0.00  0.00    -0.263 OA
ATOM      8  N   UNL d   1      56.400   0.664  35.193  0.00  0.00    -0.023 N 
ATOM      9  C   UNL d   1      53.534   0.682  35.003  0.00  0.00     0.028 C 
ENDROOT
BRANCH   2  10
ATOM     10  N   UNL d   1      56.540   0.667  33.555  0.00  0.00    -0.058 NA
BRANCH  10  11
ATOM     11  C   UNL d   1      56.697   0.210  32.876  0.00  0.00     0.100 A 
ATOM     12  C   UNL d   1      56.620  -0.601  32.916  0.00  0.00     0.020 A 
ATOM     13  C   UNL d   1      56.777  -1.060  32.234  0.00  0.00     0.002 A 
ATOM     14  C   UNL d   1      57.005  -0.687  31.543  0.00  0.00     0.000 A 
ATOM     15  C   UNL d   1      57.080   0.122  31.508  0.00  0.00     0.002 A 
ATOM     16  C   UNL d   1      56.923   0.581  32.190  0.00  0.00     0.020 A 
ENDBRANCH  10  11
ENDBRANCH   2  10
TORSDOF 2
ENDMDL
MODEL 7
REMARK VINA RESULT:      -2.7      3.166      4.295
REMARK  2 active torsions:
REMARK  status: ('A' for Active; 'I' for Inactive)
REMARK    1  A    between atoms: N_7  and  C_2 
REMARK    2  A    between atoms: C_10  and  N_7 
ROOT
ATOM      1  N   UNL d   1      60.133  -2.446  28.896  0.00  0.00     0.002 N 
ATOM      2  C   UNL d   1      59.525  -1.933  29.116  0.00  0.00     0.773 A 
ATOM      3  C   UNL d   1      59.951  -3.225  28.708  0.00  0.00     0.317 A 
ATOM      4  N   UNL d   1      58.737  -2.202  29.146  0.00  0.00     0.046 NA
ATOM      5  N   UNL d   1      58.568  -2.981  28.957  0.00  0.00    -0.127 NA
ATOM      6  C   UNL d   1      59.164  -3.495  28.739  0.00  0.00     0.162 A 
ATOM      7  O   UNL d   1      60.586  -3.744  28.483  0.00  0.00    -0.263 OA
ATOM      8  N   UNL d   1      60.906  -2.181  28.866  0.00  0.00    -0.023 N 
ATOM      9  C   UNL d   1      58.985  -4.292  28.546  0.00  0.00     0.028 C 
ENDROOT
BRANCH   2  10
ATOM     10  N   UNL d   1      59.723  -1.129  29.308  0.00  0.00    -0.058 NA
BRANCH  10  11
ATOM     11  C   UNL d   1      59.159  -0.519  29.245  0.00  0.00     0.100 A 
ATOM     12  C   UNL d   1      59.036  -0.164  28.521  0.00  0.00     0.020 A 
ATOM     13  C   UNL d   1      58.470   0.448  28.457  0.00  0.00     0.002 A 
ATOM     14  C   UNL d   1      58.052   0.679  29.120  0.00  0.00     0.000 A 
ATOM     15  C   UNL d   1      58.178   0.323  29.841  0.00  0.00     0.002 A 
ATOM     16  C   UNL d   1      58.744  -0.290  29.905  0.00  0.00     0.020 A 
ENDBRANCH  10  11
ENDBRANCH   2  10
TORSDOF 2
ENDMDL
