MODEL 1
REMARK VINA RESULT:      -2.6      0.000      0.000
REMARK  6 active torsions:
REMARK  status: ('A' for Active; 'I' for Inactive)
REMARK    1  A    between atoms: N_6  and  C_1 
REMARK    2  A    between atoms: C_18  and  N_4 
REMARK       I    between atoms: C_8  and  N_6 
REMARK    3  A    between atoms: C_7  and  C_8 
REMARK    4  A    between atoms: C_11  and  C_7 
REMARK    5  A    between atoms: C_19  and  C_9 
REMARK    6  A    between atoms: C_12  and  C_11 
ROOT
ATOM      1  C   UNL d   1      32.683  19.225 -23.845  0.00  0.00     0.128 C 
ATOM      2  C   UNL d   1      32.937  19.667 -24.471  0.00  0.00     0.106 C 
ATOM      3  N   UNL d   1      33.240  20.162 -25.096  0.00  0.00    -0.191 NA
ENDROOT
BRANCH   1   4
ATOM      4  C   UNL d   1      32.093  18.640 -23.970  0.00  0.00     0.289 C 
ATOM      5  N   UNL d   1      32.251  17.874 -23.713  0.00  0.00    -0.201 NA
ATOM      6  O   UNL d   1      31.407  18.821 -24.325  0.00  0.00    -0.264 OA
BRANCH   5   7
ATOM      7  C   UNL d   1      31.661  17.282 -23.837  0.00  0.00     0.160 A 
ATOM      8  C   UNL d   1      30.922  17.195 -23.479  0.00  0.00     0.298 A 
ATOM      9  N   UNL d   1      30.578  16.515 -23.814  0.00  0.00    -0.209 N 
ATOM     10  O   UNL d   1      30.585  17.654 -22.925  0.00  0.00    -0.263 OA
ATOM     11  N   UNL d   1      31.125  16.229 -24.353  0.00  0.00    -0.238 N 
ATOM     12  C   UNL d   1      31.802  16.675 -24.394  0.00  0.00     0.104 A 
ATOM     13  C   UNL d   1      30.990  15.521 -24.830  0.00  0.00     0.120 C 
ATOM     14  C   UNL d   1      32.455  16.537 -24.879  0.00  0.00     0.022 C 
BRANCH   9  15
ATOM     15  C   UNL d   1      29.848  16.159 -23.671  0.00  0.00     0.085 A 
ATOM     16  C   UNL d   1      29.282  16.163 -24.272  0.00  0.00     0.019 A 
ATOM     17  C   UNL d   1      28.538  15.804 -24.135  0.00  0.00     0.002 A 
ATOM     18  C   UNL d   1      28.377  15.453 -23.410  0.00  0.00     0.000 A 
ATOM     19  C   UNL d   1      28.955  15.453 -22.804  0.00  0.00     0.002 A 
ATOM     20  C   UNL d   1      29.687  15.809 -22.946  0.00  0.00     0.019 A 
ENDBRANCH   9  15
ENDBRANCH   5   7
ENDBRANCH   1   4
BRANCH   1  21
ATOM     21  C   UNL d   1      32.971  19.314 -23.079  0.00  0.00     0.040 C 
BRANCH  21  22
ATOM     22  C   UNL d   1      33.018  20.102 -22.718  0.00  0.00     0.101 A 
ATOM     23  O   UNL d   1      32.832  20.315 -21.906  0.00  0.00    -0.307 OA
ATOM     24  C   UNL d   1      32.963  21.126 -21.834  0.00  0.00     0.100 A 
ATOM     25  C   UNL d   1      33.217  21.400 -22.560  0.00  0.00     0.027 A 
ATOM     26  C   UNL d   1      33.241  20.750 -23.083  0.00  0.00     0.027 A 
BRANCH  24  27
ATOM     27  C   UNL d   1      32.848  21.565 -21.125  0.00  0.00     0.023 A 
ATOM     28  C   UNL d   1      33.120  22.331 -21.082  0.00  0.00     0.003 A 
ATOM     29  C   UNL d   1      33.005  22.771 -20.373  0.00  0.00     0.011 A 
ATOM     30  C   UNL d   1      32.624  22.421 -19.744  0.00  0.00     0.058 A 
ATOM     31  C   UNL d   1      32.352  21.655 -19.788  0.00  0.00     0.011 A 
ATOM     32 CL   UNL d   1      32.508  22.860 -19.034  0.00  0.00    -0.082 Cl
ATOM     33  C   UNL d   1      32.467  21.216 -20.497  0.00  0.00     0.003 A 
ENDBRANCH  24  27
ENDBRANCH  21  22
ENDBRANCH   1  21
TORSDOF 6
ENDMDL
MODEL 2
REMARK VINA RESULT:      -1.4      2.185      6.019
REMARK  6 active torsions:
REMARK  status: ('A' for Active; 'I' for Inactive)
REMARK    1  A    between atoms: N_6  and  C_1 
REMARK    2  A    between atoms: C_18  and  N_4 
REMARK       I    between atoms: C_8  and  N_6 
REMARK    3  A    between atoms: C_7  and  C_8 
REMARK    4  A    between atoms: C_11  and  C_7 
REMARK    5  A    between atoms: C_19  and  C_9 
REMARK    6  A    between atoms: C_12  and  C_11 
ROOT
ATOM      1  C   UNL d   1      32.762  18.018 -23.616  0.00  0.00     0.128 C 
ATOM      2  C   UNL d   1      32.883  17.479 -23.028  0.00  0.00     0.106 C 
ATOM      3  N   UNL d   1      33.000  16.867 -22.444  0.00  0.00    -0.191 NA
ENDROOT
BRANCH   1   4
ATOM      4  C   UNL d   1      32.843  18.837 -23.444  0.00  0.00     0.289 C 
ATOM      5  N   UNL d   1      32.755  19.074 -22.661  0.00  0.00    -0.201 NA
ATOM      6  O   UNL d   1      33.000  19.360 -24.018  0.00  0.00    -0.264 OA
BRANCH   5   7
ATOM      7  C   UNL d   1      32.836  19.896 -22.482  0.00  0.00     0.160 A 
ATOM      8  C   UNL d   1      32.751  20.552 -22.977  0.00  0.00     0.298 A 
ATOM      9  N   UNL d   1      32.894  21.222 -22.505  0.00  0.00    -0.209 N 
ATOM     10  O   UNL d   1      32.569  20.566 -23.750  0.00  0.00    -0.263 OA
ATOM     11  N   UNL d   1      33.058  20.938 -21.754  0.00  0.00    -0.238 N 
ATOM     12  C   UNL d   1      33.031  20.128 -21.703  0.00  0.00     0.104 A 
ATOM     13  C   UNL d   1      33.241  21.453 -21.085  0.00  0.00     0.120 C 
ATOM     14  C   UNL d   1      33.169  19.672 -21.029  0.00  0.00     0.022 C 
BRANCH   9  15
ATOM     15  C   UNL d   1      32.886  22.024 -22.698  0.00  0.00     0.085 A 
ATOM     16  C   UNL d   1      33.241  22.264 -23.404  0.00  0.00     0.019 A 
ATOM     17  C   UNL d   1      33.237  23.077 -23.607  0.00  0.00     0.002 A 
ATOM     18  C   UNL d   1      32.884  23.625 -23.108  0.00  0.00     0.000 A 
ATOM     19  C   UNL d   1      32.527  23.375 -22.393  0.00  0.00     0.002 A 
ATOM     20  C   UNL d   1      32.534  22.572 -22.199  0.00  0.00     0.019 A 
ENDBRANCH   9  15
ENDBRANCH   5   7
ENDBRANCH   1   4
BRANCH   1  21
ATOM     21  C   UNL d   1      32.559  17.812 -24.387  0.00  0.00     0.040 C 
BRANCH  21  22
ATOM     22  C   UNL d   1      31.876  17.298 -24.537  0.00  0.00     0.101 A 
ATOM     23  O   UNL d   1      31.132  17.282 -24.106  0.00  0.00    -0.307 OA
ATOM     24  C   UNL d   1      30.663  16.702 -24.456  0.00  0.00     0.100 A 
ATOM     25  C   UNL d   1      31.092  16.376 -25.070  0.00  0.00     0.027 A 
ATOM     26  C   UNL d   1      31.832  16.761 -25.095  0.00  0.00     0.027 A 
BRANCH  24  27
ATOM     27  C   UNL d   1      29.884  16.503 -24.205  0.00  0.00     0.023 A 
ATOM     28  C   UNL d   1      29.700  15.724 -24.056  0.00  0.00     0.003 A 
ATOM     29  C   UNL d   1      28.921  15.525 -23.805  0.00  0.00     0.011 A 
ATOM     30  C   UNL d   1      28.368  16.116 -23.715  0.00  0.00     0.058 A 
ATOM     31  C   UNL d   1      28.552  16.894 -23.864  0.00  0.00     0.011 A 
ATOM     32 CL   UNL d   1      27.588  15.916 -23.463  0.00  0.00    -0.082 Cl
ATOM     33  C   UNL d   1      29.331  17.093 -24.115  0.00  0.00     0.003 A 
ENDBRANCH  24  27
ENDBRANCH  21  22
ENDBRANCH   1  21
TORSDOF 6
ENDMDL
