MODEL 1
REMARK VINA RESULT:      -1.3      0.000      0.000
REMARK  6 active torsions:
REMARK  status: ('A' for Active; 'I' for Inactive)
REMARK    1  A    between atoms: C_4  and  C_1 
REMARK    2  A    between atoms: C_13  and  N_3 
REMARK    3  A    between atoms: C_11  and  N_5 
REMARK    4  A    between atoms: C_16  and  C_13 
REMARK    5  A    between atoms: O_14  and  C_16 
REMARK    6  A    between atoms: C_15  and  O_14 
ROOT
ATOM      1  C   UNL d   1      32.805  19.230 -23.787  0.00  0.00     0.149 A 
ATOM      2  N   UNL d   1      32.755  19.538 -24.553  0.00  0.00    -0.227 NA
ATOM      3  N   UNL d   1      32.988  19.860 -23.265  0.00  0.00    -0.287 N 
ATOM      4  C   UNL d   1      33.048  20.553 -23.722  0.00  0.00     0.083 A 
ATOM      5  C   UNL d   1      32.906  20.360 -24.515  0.00  0.00     0.099 A 
ATOM      6  C   UNL d   1      33.216  21.341 -23.512  0.00  0.00     0.019 A 
ATOM      7  C   UNL d   1      32.929  20.939 -25.097  0.00  0.00     0.021 A 
ATOM      8  C   UNL d   1      33.239  21.923 -24.104  0.00  0.00     0.002 A 
ATOM      9  C   UNL d   1      33.096  21.723 -24.894  0.00  0.00     0.002 A 
ENDROOT
BRANCH   1  10
ATOM     10  C   UNL d   1      32.695  18.443 -23.568  0.00  0.00     0.057 A 
ATOM     11  C   UNL d   1      32.056  17.968 -23.765  0.00  0.00     0.081 A 
ATOM     12  N   UNL d   1      32.179  17.221 -23.426  0.00  0.00    -0.298 N 
ATOM     13  C   UNL d   1      32.896  17.240 -23.020  0.00  0.00     0.261 A 
ATOM     14  C   UNL d   1      33.217  17.994 -23.106  0.00  0.00     0.065 A 
ATOM     15  O   UNL d   1      33.230  16.616 -22.604  0.00  0.00    -0.267 OA
BRANCH  12  16
ATOM     16  C   UNL d   1      31.671  16.575 -23.487  0.00  0.00     0.071 C 
ATOM     17  C   UNL d   1      31.981  15.811 -23.450  0.00  0.00     0.023 C 
ATOM     18  C   UNL d   1      31.072  16.022 -23.559  0.00  0.00     0.023 C 
ATOM     19  C   UNL d   1      30.866  16.694 -23.584  0.00  0.00     0.023 C 
ENDBRANCH  12  16
ENDBRANCH   1  10
BRANCH   3  20
ATOM     20  C   UNL d   1      33.088  19.802 -22.454  0.00  0.00     0.108 C 
BRANCH  20  21
ATOM     21  C   UNL d   1      32.790  20.392 -21.955  0.00  0.00     0.142 C 
BRANCH  21  22
ATOM     22  O   UNL d   1      32.718  20.258 -21.151  0.00  0.00    -0.304 OA
BRANCH  22  23
ATOM     23  C   UNL d   1      32.632  20.903 -20.639  0.00  0.00     0.100 A 
ATOM     24  C   UNL d   1      33.237  21.068 -20.102  0.00  0.00     0.025 A 
ATOM     25  C   UNL d   1      33.151  21.713 -19.590  0.00  0.00     0.002 A 
ATOM     26  C   UNL d   1      32.475  22.181 -19.615  0.00  0.00     0.000 A 
ATOM     27  C   UNL d   1      31.876  22.001 -20.160  0.00  0.00     0.002 A 
ATOM     28  C   UNL d   1      31.961  21.360 -20.670  0.00  0.00     0.025 A 
ENDBRANCH  22  23
ENDBRANCH  21  22
ENDBRANCH  20  21
ENDBRANCH   3  20
TORSDOF 6
ENDMDL
MODEL 2
REMARK VINA RESULT:       0.5      1.193      2.945
REMARK  6 active torsions:
REMARK  status: ('A' for Active; 'I' for Inactive)
REMARK    1  A    between atoms: C_4  and  C_1 
REMARK    2  A    between atoms: C_13  and  N_3 
REMARK    3  A    between atoms: C_11  and  N_5 
REMARK    4  A    between atoms: C_16  and  C_13 
REMARK    5  A    between atoms: O_14  and  C_16 
REMARK    6  A    between atoms: C_15  and  O_14 
ROOT
ATOM      1  C   UNL d   1      32.813  19.195 -22.472  0.00  0.00     0.149 A 
ATOM      2  N   UNL d   1      32.881  19.115 -21.651  0.00  0.00    -0.227 NA
ATOM      3  N   UNL d   1      32.895  20.007 -22.661  0.00  0.00    -0.287 N 
ATOM      4  C   UNL d   1      33.015  20.419 -21.949  0.00  0.00     0.083 A 
ATOM      5  C   UNL d   1      33.007  19.876 -21.324  0.00  0.00     0.099 A 
ATOM      6  C   UNL d   1      33.130  21.229 -21.790  0.00  0.00     0.019 A 
ATOM      7  C   UNL d   1      33.112  20.126 -20.549  0.00  0.00     0.021 A 
ATOM      8  C   UNL d   1      33.236  21.478 -21.005  0.00  0.00     0.002 A 
ATOM      9  C   UNL d   1      33.227  20.928 -20.386  0.00  0.00     0.002 A 
ENDROOT
BRANCH   1  10
ATOM     10  C   UNL d   1      32.685  18.588 -23.013  0.00  0.00     0.057 A 
ATOM     11  C   UNL d   1      32.002  18.139 -23.090  0.00  0.00     0.081 A 
ATOM     12  N   UNL d   1      32.122  17.595 -23.703  0.00  0.00    -0.298 N 
ATOM     13  C   UNL d   1      32.881  17.710 -24.003  0.00  0.00     0.261 A 
ATOM     14  C   UNL d   1      33.231  18.324 -23.578  0.00  0.00     0.065 A 
ATOM     15  O   UNL d   1      33.226  17.288 -24.618  0.00  0.00    -0.267 OA
BRANCH  12  16
ATOM     16  C   UNL d   1      31.574  17.036 -23.965  0.00  0.00     0.071 C 
ATOM     17  C   UNL d   1      31.694  16.239 -23.789  0.00  0.00     0.023 C 
ATOM     18  C   UNL d   1      30.968  16.583 -24.277  0.00  0.00     0.023 C 
ATOM     19  C   UNL d   1      30.920  17.274 -24.396  0.00  0.00     0.023 C 
ENDBRANCH  12  16
ENDBRANCH   1  10
BRANCH   3  20
ATOM     20  C   UNL d   1      32.864  20.334 -23.413  0.00  0.00     0.108 C 
BRANCH  20  21
ATOM     21  C   UNL d   1      33.180  21.086 -23.552  0.00  0.00     0.142 C 
BRANCH  21  22
ATOM     22  O   UNL d   1      33.185  21.400 -24.308  0.00  0.00    -0.304 OA
BRANCH  22  23
ATOM     23  C   UNL d   1      32.913  22.173 -24.428  0.00  0.00     0.100 A 
ATOM     24  C   UNL d   1      32.308  22.301 -24.975  0.00  0.00     0.025 A 
ATOM     25  C   UNL d   1      32.035  23.074 -25.095  0.00  0.00     0.002 A 
ATOM     26  C   UNL d   1      32.361  23.702 -24.677  0.00  0.00     0.000 A 
ATOM     27  C   UNL d   1      32.968  23.557 -24.130  0.00  0.00     0.002 A 
ATOM     28  C   UNL d   1      33.240  22.789 -24.010  0.00  0.00     0.025 A 
ENDBRANCH  22  23
ENDBRANCH  21  22
ENDBRANCH  20  21
ENDBRANCH   3  20
TORSDOF 6
ENDMDL
