MODEL 1
REMARK VINA RESULT:      -2.6      0.000      0.000
REMARK  3 active torsions:
REMARK  status: ('A' for Active; 'I' for Inactive)
REMARK    1  A    between atoms: S_3  and  N_1 
REMARK    2  A    between atoms: C_7  and  C_4 
REMARK    3  A    between atoms: C_16  and  C_5 
ROOT
ATOM      1  N   UNL d   1      32.649  17.622 -23.726  0.00  0.00    -0.155 N 
ATOM      2  N   UNL d   1      33.123  18.201 -23.349  0.00  0.00    -0.156 NA
ATOM      3  C   UNL d   1      31.882  17.867 -23.707  0.00  0.00     0.096 A 
ATOM      4  C   UNL d   1      32.617  18.801 -23.103  0.00  0.00     0.103 A 
ATOM      5  C   UNL d   1      31.841  18.582 -23.332  0.00  0.00     0.041 A 
ENDROOT
BRANCH   3   6
ATOM      6  C   UNL d   1      31.239  17.454 -24.019  0.00  0.00     0.021 A 
ATOM      7  C   UNL d   1      30.850  16.853 -23.583  0.00  0.00     0.028 A 
ATOM      8  C   UNL d   1      30.206  16.439 -23.896  0.00  0.00     0.119 A 
ATOM      9  O   UNL d   1      29.760  15.857 -23.586  0.00  0.00    -0.300 OA
ATOM     10  C   UNL d   1      29.955  16.629 -24.644  0.00  0.00     0.119 A 
ATOM     11  C   UNL d   1      29.181  15.648 -24.159  0.00  0.00     0.304 A 
ATOM     12  O   UNL d   1      29.322  16.145 -24.814  0.00  0.00    -0.300 OA
ATOM     13  C   UNL d   1      30.301  17.200 -25.096  0.00  0.00     0.026 A 
ATOM     14  C   UNL d   1      30.945  17.613 -24.783  0.00  0.00     0.004 A 
ENDBRANCH   3   6
BRANCH   1  15
ATOM     15  S   UNL d   1      32.949  16.914 -24.059  0.00  0.00     0.266 S 
ATOM     16  O   UNL d   1      33.006  17.316 -24.768  0.00  0.00    -0.203 OA
ATOM     17  O   UNL d   1      32.878  16.534 -23.320  0.00  0.00    -0.203 OA
ATOM     18  C   UNL d   1      33.240  16.233 -24.390  0.00  0.00     0.165 C 
ENDBRANCH   1  15
BRANCH   4  19
ATOM     19  C   UNL d   1      32.825  19.492 -22.705  0.00  0.00     0.019 A 
ATOM     20  C   UNL d   1      32.915  19.421 -21.877  0.00  0.00     0.002 A 
ATOM     21  C   UNL d   1      33.129  20.121 -21.454  0.00  0.00     0.000 A 
ATOM     22  C   UNL d   1      33.240  20.836 -21.859  0.00  0.00     0.000 A 
ATOM     23  C   UNL d   1      33.142  20.857 -22.664  0.00  0.00     0.000 A 
ATOM     24  C   UNL d   1      32.937  20.190 -23.073  0.00  0.00     0.002 A 
ENDBRANCH   4  19
TORSDOF 3
ENDMDL
MODEL 2
REMARK VINA RESULT:      -0.3      4.400      6.747
REMARK  3 active torsions:
REMARK  status: ('A' for Active; 'I' for Inactive)
REMARK    1  A    between atoms: S_3  and  N_1 
REMARK    2  A    between atoms: C_7  and  C_4 
REMARK    3  A    between atoms: C_16  and  C_5 
ROOT
ATOM      1  N   UNL d   1      32.194  22.307 -20.957  0.00  0.00    -0.155 N 
ATOM      2  N   UNL d   1      32.198  21.726 -21.559  0.00  0.00    -0.156 NA
ATOM      3  C   UNL d   1      32.678  22.062 -20.360  0.00  0.00     0.096 A 
ATOM      4  C   UNL d   1      32.699  21.123 -21.307  0.00  0.00     0.103 A 
ATOM      5  C   UNL d   1      32.994  21.344 -20.554  0.00  0.00     0.041 A 
ENDROOT
BRANCH   3   6
ATOM      6  C   UNL d   1      32.826  22.477 -19.663  0.00  0.00     0.021 A 
ATOM      7  C   UNL d   1      32.784  22.104 -18.913  0.00  0.00     0.028 A 
ATOM      8  C   UNL d   1      32.933  22.520 -18.213  0.00  0.00     0.119 A 
ATOM      9  O   UNL d   1      32.924  22.282 -17.454  0.00  0.00    -0.300 OA
ATOM     10  C   UNL d   1      33.123  23.307 -18.268  0.00  0.00     0.119 A 
ATOM     11  C   UNL d   1      33.120  22.946 -16.977  0.00  0.00     0.304 A 
ATOM     12  O   UNL d   1      33.241  23.577 -17.509  0.00  0.00    -0.300 OA
ATOM     13  C   UNL d   1      33.175  23.702 -18.969  0.00  0.00     0.026 A 
ATOM     14  C   UNL d   1      33.026  23.287 -19.668  0.00  0.00     0.004 A 
ENDBRANCH   3   6
BRANCH   1  15
ATOM     15  S   UNL d   1      31.752  23.018 -20.993  0.00  0.00     0.266 S 
ATOM     16  O   UNL d   1      31.184  22.644 -20.541  0.00  0.00    -0.203 OA
ATOM     17  O   UNL d   1      32.352  23.370 -21.454  0.00  0.00    -0.203 OA
ATOM     18  C   UNL d   1      31.317  23.702 -21.023  0.00  0.00     0.165 C 
ENDBRANCH   1  15
BRANCH   4  19
ATOM     19  C   UNL d   1      32.881  20.429 -21.712  0.00  0.00     0.019 A 
ATOM     20  C   UNL d   1      32.916  20.494 -22.545  0.00  0.00     0.002 A 
ATOM     21  C   UNL d   1      33.102  19.790 -22.976  0.00  0.00     0.000 A 
ATOM     22  C   UNL d   1      33.241  19.079 -22.572  0.00  0.00     0.000 A 
ATOM     23  C   UNL d   1      33.197  19.065 -21.762  0.00  0.00     0.000 A 
ATOM     24  C   UNL d   1      33.019  19.735 -21.346  0.00  0.00     0.002 A 
ENDBRANCH   4  19
TORSDOF 3
ENDMDL
