MODEL 1
REMARK VINA RESULT:      70.1      0.000      0.000
REMARK  4 active torsions:
REMARK  status: ('A' for Active; 'I' for Inactive)
REMARK    1  A    between atoms: C_23  and  N_1 
REMARK       I    between atoms: N_7  and  C_10 
REMARK    2  A    between atoms: C_10  and  C_25 
REMARK    3  A    between atoms: C_26  and  C_23 
REMARK    4  A    between atoms: C_25  and  C_26 
ROOT
ATOM      1  N   UNL d   1      14.310  17.618  -5.637  0.00  0.00    -0.249 N 
ATOM      2  C   UNL d   1      14.787  18.238  -5.377  0.00  0.00     0.268 A 
ATOM      3  C   UNL d   1      13.676  17.771  -6.125  0.00  0.00     0.208 A 
ATOM      4  C   UNL d   1      14.624  19.013  -5.609  0.00  0.00     0.076 A 
ATOM      5  C   UNL d   1      13.990  19.166  -6.097  0.00  0.00     0.090 A 
ATOM      6  N   UNL d   1      13.530  18.540  -6.343  0.00  0.00    -0.218 NA
ATOM      7  C   UNL d   1      15.102  19.638  -5.348  0.00  0.00     0.033 A 
ATOM      8  C   UNL d   1      13.846  19.942  -6.315  0.00  0.00     0.046 A 
ATOM      9  C   UNL d   1      14.942  20.426  -5.580  0.00  0.00     0.119 A 
ATOM     10  C   UNL d   1      14.304  20.566  -6.068  0.00  0.00     0.121 A 
ATOM     11  S   UNL d   1      13.208  17.134  -6.376  0.00  0.00    -0.038 SA
ATOM     12  O   UNL d   1      15.415  18.087  -4.893  0.00  0.00    -0.267 OA
ATOM     13  O   UNL d   1      15.301  21.147  -5.420  0.00  0.00    -0.300 OA
ATOM     14  O   UNL d   1      14.292  21.387  -6.196  0.00  0.00    -0.299 OA
ATOM     15  C   UNL d   1      14.903  21.750  -5.800  0.00  0.00     0.304 A 
ENDROOT
BRANCH   1  16
ATOM     16  C   UNL d   1      14.470  16.830  -5.406  0.00  0.00     0.085 C 
BRANCH  16  17
ATOM     17  C   UNL d   1      13.986  16.468  -4.871  0.00  0.00     0.024 C 
BRANCH  17  18
ATOM     18  C   UNL d   1      14.041  15.663  -4.771  0.00  0.00     0.063 C 
BRANCH  18  19
ATOM     19  C   UNL d   1      14.085  15.356  -4.025  0.00  0.00     0.265 C 
ATOM     20  N   UNL d   1      13.846  14.578  -3.896  0.00  0.00    -0.272 N 
ATOM     21  C   UNL d   1      13.564  14.126  -4.537  0.00  0.00     0.083 A 
ATOM     22  C   UNL d   1      13.886  14.253  -3.141  0.00  0.00     0.083 A 
ATOM     23  C   UNL d   1      13.322  13.344  -4.413  0.00  0.00     0.018 A 
ATOM     24  C   UNL d   1      13.043  12.897  -5.044  0.00  0.00     0.002 A 
ATOM     25  C   UNL d   1      13.361  13.010  -3.648  0.00  0.00     0.003 A 
ATOM     26  C   UNL d   1      12.802  12.115  -4.918  0.00  0.00     0.000 A 
ATOM     27  C   UNL d   1      12.840  11.782  -4.159  0.00  0.00     0.000 A 
ATOM     28  C   UNL d   1      13.121  12.234  -3.526  0.00  0.00     0.000 A 
ATOM     29  C   UNL d   1      13.644  13.469  -3.014  0.00  0.00     0.019 A 
ATOM     30  O   UNL d   1      14.374  15.841  -3.411  0.00  0.00    -0.267 OA
ENDBRANCH  18  19
ENDBRANCH  17  18
ENDBRANCH  16  17
ENDBRANCH   1  16
TORSDOF 4
ENDMDL
MODEL 2
REMARK VINA RESULT:      70.8      1.460      2.198
REMARK  4 active torsions:
REMARK  status: ('A' for Active; 'I' for Inactive)
REMARK    1  A    between atoms: C_23  and  N_1 
REMARK       I    between atoms: N_7  and  C_10 
REMARK    2  A    between atoms: C_10  and  C_25 
REMARK    3  A    between atoms: C_26  and  C_23 
REMARK    4  A    between atoms: C_25  and  C_26 
ROOT
ATOM      1  N   UNL d   1      14.302  16.230  -5.003  0.00  0.00    -0.249 N 
ATOM      2  C   UNL d   1      14.605  16.956  -4.760  0.00  0.00     0.268 A 
ATOM      3  C   UNL d   1      13.853  16.183  -5.682  0.00  0.00     0.208 A 
ATOM      4  C   UNL d   1      14.455  17.638  -5.201  0.00  0.00     0.076 A 
ATOM      5  C   UNL d   1      14.007  17.591  -5.880  0.00  0.00     0.090 A 
ATOM      6  N   UNL d   1      13.716  16.864  -6.104  0.00  0.00    -0.218 NA
ATOM      7  C   UNL d   1      14.759  18.369  -4.958  0.00  0.00     0.033 A 
ATOM      8  C   UNL d   1      13.870  18.279  -6.303  0.00  0.00     0.046 A 
ATOM      9  C   UNL d   1      14.611  19.063  -5.401  0.00  0.00     0.119 A 
ATOM     10  C   UNL d   1      14.161  19.004  -6.078  0.00  0.00     0.121 A 
ATOM     11  S   UNL d   1      13.557  15.443  -5.910  0.00  0.00    -0.038 SA
ATOM     12  O   UNL d   1      15.049  17.002  -4.088  0.00  0.00    -0.267 OA
ATOM     13  O   UNL d   1      14.828  19.851  -5.310  0.00  0.00    -0.300 OA
ATOM     14  O   UNL d   1      14.114  19.774  -6.388  0.00  0.00    -0.299 OA
ATOM     15  C   UNL d   1      14.522  20.299  -5.920  0.00  0.00     0.304 A 
ENDROOT
BRANCH   1  16
ATOM     16  C   UNL d   1      14.450  15.535  -4.560  0.00  0.00     0.085 C 
BRANCH  16  17
ATOM     17  C   UNL d   1      13.832  15.063  -4.346  0.00  0.00     0.024 C 
BRANCH  17  18
ATOM     18  C   UNL d   1      13.910  14.581  -3.695  0.00  0.00     0.063 C 
BRANCH  18  19
ATOM     19  C   UNL d   1      13.655  13.816  -3.732  0.00  0.00     0.265 C 
ATOM     20  N   UNL d   1      13.825  13.305  -3.108  0.00  0.00    -0.272 N 
ATOM     21  C   UNL d   1      14.257  13.589  -2.454  0.00  0.00     0.083 A 
ATOM     22  C   UNL d   1      13.571  12.523  -3.134  0.00  0.00     0.083 A 
ATOM     23  C   UNL d   1      14.431  13.080  -1.825  0.00  0.00     0.018 A 
ATOM     24  C   UNL d   1      14.857  13.359  -1.179  0.00  0.00     0.002 A 
ATOM     25  C   UNL d   1      14.175  12.285  -1.846  0.00  0.00     0.003 A 
ATOM     26  C   UNL d   1      15.030  12.848  -0.550  0.00  0.00     0.000 A 
ATOM     27  C   UNL d   1      14.776  12.058  -0.571  0.00  0.00     0.000 A 
ATOM     28  C   UNL d   1      14.348  11.780  -1.221  0.00  0.00     0.000 A 
ATOM     29  C   UNL d   1      13.744  12.010  -2.503  0.00  0.00     0.019 A 
ATOM     30  O   UNL d   1      13.226  13.571  -4.404  0.00  0.00    -0.267 OA
ENDBRANCH  18  19
ENDBRANCH  17  18
ENDBRANCH  16  17
ENDBRANCH   1  16
TORSDOF 4
ENDMDL
