MODEL 1
REMARK VINA RESULT:      18.3      0.000      0.000
REMARK  5 active torsions:
REMARK  status: ('A' for Active; 'I' for Inactive)
REMARK    1  A    between atoms: C_2  and  N_1 
REMARK    2  A    between atoms: O_4  and  N_1 
REMARK    3  A    between atoms: C_8  and  C_2 
REMARK    4  A    between atoms: C_3  and  O_4 
REMARK    5  A    between atoms: C_5  and  C_3 
ROOT
ATOM      1  O   UNL d   1      14.272  12.265  -2.074  0.00  0.00    -0.168 OA
ENDROOT
BRANCH   1   2
ATOM      2  C   UNL d   1      13.482  12.084  -2.492  0.00  0.00     0.319 C 
ATOM      3  O   UNL d   1      12.772  11.793  -2.023  0.00  0.00    -0.257 OA
BRANCH   2   4
ATOM      4  C   UNL d   1      13.414  12.187  -3.313  0.00  0.00     0.065 A 
ATOM      5  C   UNL d   1      13.909  11.780  -3.827  0.00  0.00     0.006 A 
ATOM      6  C   UNL d   1      13.836  11.886  -4.624  0.00  0.00     0.007 A 
ATOM      7  C   UNL d   1      13.274  12.397  -4.948  0.00  0.00     0.035 A 
ATOM      8  C   UNL d   1      12.778  12.805  -4.432  0.00  0.00     0.007 A 
ATOM      9 BR   UNL d   1      13.201  12.504  -5.764  0.00  0.00    -0.049 Br
ATOM     10  C   UNL d   1      12.837  12.709  -3.607  0.00  0.00     0.006 A 
ENDBRANCH   2   4
ENDBRANCH   1   2
BRANCH   1  11
ATOM     11  N   UNL d   1      14.346  12.197  -1.264  0.00  0.00    -0.102 NA
BRANCH  11  12
ATOM     12  C   UNL d   1      15.001  12.493  -0.867  0.00  0.00     0.210 C 
ATOM     13  N   UNL d   1      15.655  12.004  -0.750  0.00  0.00    -0.125 N 
BRANCH  12  14
ATOM     14  C   UNL d   1      15.020  13.262  -0.584  0.00  0.00     0.043 A 
ATOM     15  C   UNL d   1      14.349  13.627  -0.300  0.00  0.00     0.024 A 
ATOM     16  C   UNL d   1      14.367  14.398  -0.016  0.00  0.00     0.099 A 
ATOM     17  N   UNL d   1      15.090  14.800  -0.025  0.00  0.00    -0.242 NA
ATOM     18  C   UNL d   1      15.774  14.450  -0.306  0.00  0.00     0.099 A 
ATOM     19  C   UNL d   1      15.737  13.675  -0.587  0.00  0.00     0.024 A 
ENDBRANCH  12  14
ENDBRANCH  11  12
ENDBRANCH   1  11
TORSDOF 5
ENDMDL
