MODEL 1
REMARK VINA RESULT:      11.8      0.000      0.000
REMARK  3 active torsions:
REMARK  status: ('A' for Active; 'I' for Inactive)
REMARK    1  A    between atoms: N_3  and  C_1 
REMARK    2  A    between atoms: C_5  and  C_2 
REMARK       I    between atoms: C_4  and  N_3 
REMARK    3  A    between atoms: C_10  and  C_4 
ROOT
ATOM      1  N   UNL d   1      14.043  12.448  -2.097  0.00  0.00    -0.201 NA
ATOM      2  C   UNL d   1      13.364  12.182  -2.484  0.00  0.00     0.280 C 
ATOM      3  O   UNL d   1      12.779  11.780  -2.066  0.00  0.00    -0.265 OA
ENDROOT
BRANCH   1   4
ATOM      4  C   UNL d   1      14.134  12.309  -1.289  0.00  0.00     0.119 A 
ATOM      5  C   UNL d   1      14.689  12.671  -0.793  0.00  0.00     0.084 A 
ATOM      6  C   UNL d   1      14.583  12.367  -0.023  0.00  0.00     0.014 A 
ATOM      7  C   UNL d   1      13.963  11.820  -0.054  0.00  0.00     0.037 A 
ATOM      8  S   UNL d   1      13.691  11.788  -0.833  0.00  0.00    -0.067 SA
BRANCH   5   9
ATOM      9  C   UNL d   1      15.250  13.234  -1.013  0.00  0.00     0.299 C 
ATOM     10  O   UNL d   1      15.887  13.011  -1.496  0.00  0.00    -0.264 OA
ATOM     11  N   UNL d   1      15.179  14.017  -0.754  0.00  0.00    -0.102 N 
ENDBRANCH   5   9
ENDBRANCH   1   4
BRANCH   2  12
ATOM     12  C   UNL d   1      13.278  12.322  -3.289  0.00  0.00     0.058 A 
ATOM     13  C   UNL d   1      13.587  11.784  -3.831  0.00  0.00     0.005 A 
ATOM     14  C   UNL d   1      13.496  11.932  -4.642  0.00  0.00     0.000 A 
ATOM     15  C   UNL d   1      13.103  12.607  -4.902  0.00  0.00     0.000 A 
ATOM     16  C   UNL d   1      12.798  13.139  -4.352  0.00  0.00     0.000 A 
ATOM     17  C   UNL d   1      12.884  12.999  -3.541  0.00  0.00     0.005 A 
ENDBRANCH   2  12
TORSDOF 3
ENDMDL
