MODEL 1
REMARK VINA RESULT:      -2.0      0.000      0.000
REMARK  5 active torsions:
REMARK  status: ('A' for Active; 'I' for Inactive)
REMARK    1  A    between atoms: C_8  and  C_1 
REMARK    2  A    between atoms: C_10  and  C_2 
REMARK    3  A    between atoms: N_6  and  C_9 
REMARK    4  A    between atoms: O_19  and  C_8 
REMARK    5  A    between atoms: C_21  and  O_19 
ROOT
ATOM      1  C   UNL d   1      59.506  -2.953  28.912  0.00  0.00     0.099 A 
ATOM      2  C   UNL d   1      58.717  -2.742  29.027  0.00  0.00     0.093 A 
ATOM      3  C   UNL d   1      59.707  -3.713  28.647  0.00  0.00     0.093 A 
ATOM      4  N   UNL d   1      58.121  -3.305  28.872  0.00  0.00    -0.191 NA
ATOM      5  C   UNL d   1      58.322  -4.066  28.607  0.00  0.00     0.369 A 
ATOM      6  N   UNL d   1      59.119  -4.266  28.495  0.00  0.00    -0.191 NA
ATOM      7  O   UNL d   1      57.730  -4.619  28.455  0.00  0.00    -0.242 OA
ATOM      8  C   UNL d   1      60.499  -3.911  28.536  0.00  0.00     0.021 C 
ENDROOT
BRANCH   2   9
ATOM      9  C   UNL d   1      58.512  -1.988  29.290  0.00  0.00     0.018 A 
ATOM     10  C   UNL d   1      58.344  -1.874  30.086  0.00  0.00     0.003 A 
ATOM     11  C   UNL d   1      58.140  -1.128  30.357  0.00  0.00     0.024 A 
ATOM     12  C   UNL d   1      58.101  -0.484  29.831  0.00  0.00     0.127 A 
ATOM     13  C   UNL d   1      58.271  -0.603  29.028  0.00  0.00     0.024 A 
ATOM     14  C   UNL d   1      58.476  -1.356  28.760  0.00  0.00     0.003 A 
BRANCH  12  15
ATOM     15  N   UNL d   1      57.896   0.269  30.100  0.00  0.00    -0.114 N 
ATOM     16  O   UNL d   1      57.238   0.654  29.784  0.00  0.00    -0.532 OA
ATOM     17  O   UNL d   1      58.349   0.637  30.684  0.00  0.00    -0.532 OA
ENDBRANCH  12  15
ENDBRANCH   2   9
BRANCH   1  18
ATOM     18  C   UNL d   1      60.100  -2.403  29.062  0.00  0.00     0.303 C 
ATOM     19  O   UNL d   1      60.442  -2.359  29.812  0.00  0.00    -0.259 OA
BRANCH  18  20
ATOM     20  O   UNL d   1      60.357  -1.894  28.465  0.00  0.00    -0.271 OA
BRANCH  20  21
ATOM     21  C   UNL d   1      61.089  -1.517  28.531  0.00  0.00     0.126 C 
ATOM     22  C   UNL d   1      61.133  -0.704  28.456  0.00  0.00     0.029 C 
ENDBRANCH  20  21
ENDBRANCH  18  20
ENDBRANCH   1  18
TORSDOF 5
ENDMDL
MODEL 2
REMARK VINA RESULT:      -1.7      1.910      3.162
REMARK  5 active torsions:
REMARK  status: ('A' for Active; 'I' for Inactive)
REMARK    1  A    between atoms: C_8  and  C_1 
REMARK    2  A    between atoms: C_10  and  C_2 
REMARK    3  A    between atoms: N_6  and  C_9 
REMARK    4  A    between atoms: O_19  and  C_8 
REMARK    5  A    between atoms: C_21  and  O_19 
ROOT
ATOM      1  C   UNL d   1      59.209  -0.753  29.529  0.00  0.00     0.099 A 
ATOM      2  C   UNL d   1      59.133  -0.250  30.179  0.00  0.00     0.093 A 
ATOM      3  C   UNL d   1      59.920  -0.789  29.102  0.00  0.00     0.093 A 
ATOM      4  N   UNL d   1      59.783   0.223  30.402  0.00  0.00    -0.191 NA
ATOM      5  C   UNL d   1      60.494   0.187  29.976  0.00  0.00     0.369 A 
ATOM      6  N   UNL d   1      60.558  -0.322  29.324  0.00  0.00    -0.191 NA
ATOM      7  O   UNL d   1      61.133   0.657  30.200  0.00  0.00    -0.242 OA
ATOM      8  C   UNL d   1      59.983  -1.294  28.455  0.00  0.00     0.021 C 
ENDROOT
BRANCH   2   9
ATOM      9  C   UNL d   1      58.429  -0.212  30.606  0.00  0.00     0.018 A 
ATOM     10  C   UNL d   1      58.297  -0.753  31.210  0.00  0.00     0.003 A 
ATOM     11  C   UNL d   1      57.599  -0.722  31.640  0.00  0.00     0.024 A 
ATOM     12  C   UNL d   1      57.024  -0.146  31.469  0.00  0.00     0.127 A 
ATOM     13  C   UNL d   1      57.160   0.399  30.858  0.00  0.00     0.024 A 
ATOM     14  C   UNL d   1      57.864   0.364  30.428  0.00  0.00     0.003 A 
BRANCH  12  15
ATOM     15  N   UNL d   1      56.320  -0.111  31.898  0.00  0.00    -0.114 N 
ATOM     16  O   UNL d   1      55.880   0.588  31.914  0.00  0.00    -0.532 OA
ATOM     17  O   UNL d   1      56.056  -0.775  32.313  0.00  0.00    -0.532 OA
ENDBRANCH  12  15
ENDBRANCH   2   9
BRANCH   1  18
ATOM     18  C   UNL d   1      58.573  -1.224  29.301  0.00  0.00     0.303 C 
ATOM     19  O   UNL d   1      57.904  -0.879  28.964  0.00  0.00    -0.259 OA
BRANCH  18  20
ATOM     20  O   UNL d   1      58.601  -2.042  29.409  0.00  0.00    -0.271 OA
BRANCH  20  21
ATOM     21  C   UNL d   1      58.374  -2.547  28.797  0.00  0.00     0.126 C 
ATOM     22  C   UNL d   1      58.325  -3.352  28.933  0.00  0.00     0.029 C 
ENDBRANCH  20  21
ENDBRANCH  18  20
ENDBRANCH   1  18
TORSDOF 5
ENDMDL
MODEL 3
REMARK VINA RESULT:      -1.0      3.841      5.925
REMARK  5 active torsions:
REMARK  status: ('A' for Active; 'I' for Inactive)
REMARK    1  A    between atoms: C_8  and  C_1 
REMARK    2  A    between atoms: C_10  and  C_2 
REMARK    3  A    between atoms: N_6  and  C_9 
REMARK    4  A    between atoms: O_19  and  C_8 
REMARK    5  A    between atoms: C_21  and  O_19 
ROOT
ATOM      1  C   UNL d   1      55.983   0.098  33.910  0.00  0.00     0.099 A 
ATOM      2  C   UNL d   1      55.652   0.077  33.154  0.00  0.00     0.093 A 
ATOM      3  C   UNL d   1      55.523   0.311  34.567  0.00  0.00     0.093 A 
ATOM      4  N   UNL d   1      54.847   0.273  33.059  0.00  0.00    -0.191 NA
ATOM      5  C   UNL d   1      54.387   0.486  33.717  0.00  0.00     0.369 A 
ATOM      6  N   UNL d   1      54.731   0.503  34.471  0.00  0.00    -0.191 NA
ATOM      7  O   UNL d   1      53.592   0.679  33.618  0.00  0.00    -0.242 OA
ATOM      8  C   UNL d   1      55.865   0.327  35.316  0.00  0.00     0.021 C 
ENDROOT
BRANCH   2   9
ATOM      9  C   UNL d   1      56.105  -0.134  32.497  0.00  0.00     0.018 A 
ATOM     10  C   UNL d   1      56.261  -0.928  32.358  0.00  0.00     0.003 A 
ATOM     11  C   UNL d   1      56.711  -1.147  31.708  0.00  0.00     0.024 A 
ATOM     12  C   UNL d   1      57.009  -0.570  31.188  0.00  0.00     0.127 A 
ATOM     13  C   UNL d   1      56.849   0.231  31.332  0.00  0.00     0.024 A 
ATOM     14  C   UNL d   1      56.396   0.447  31.987  0.00  0.00     0.003 A 
BRANCH  12  15
ATOM     15  N   UNL d   1      57.462  -0.785  30.532  0.00  0.00    -0.114 N 
ATOM     16  O   UNL d   1      57.862  -0.207  30.099  0.00  0.00    -0.532 OA
ATOM     17  O   UNL d   1      57.515  -1.579  30.310  0.00  0.00    -0.532 OA
ENDBRANCH  12  15
ENDBRANCH   2   9
BRANCH   1  18
ATOM     18  C   UNL d   1      56.777  -0.094  34.012  0.00  0.00     0.303 C 
ATOM     19  O   UNL d   1      57.040  -0.860  33.855  0.00  0.00    -0.259 OA
BRANCH  18  20
ATOM     20  O   UNL d   1      57.314   0.477  34.271  0.00  0.00    -0.271 OA
BRANCH  20  21
ATOM     21  C   UNL d   1      58.031   0.247  34.608  0.00  0.00     0.126 C 
ATOM     22  C   UNL d   1      58.708   0.679  34.455  0.00  0.00     0.029 C 
ENDBRANCH  20  21
ENDBRANCH  18  20
ENDBRANCH   1  18
TORSDOF 5
ENDMDL
MODEL 4
REMARK VINA RESULT:      -0.5      2.256      3.196
REMARK  5 active torsions:
REMARK  status: ('A' for Active; 'I' for Inactive)
REMARK    1  A    between atoms: C_8  and  C_1 
REMARK    2  A    between atoms: C_10  and  C_2 
REMARK    3  A    between atoms: N_6  and  C_9 
REMARK    4  A    between atoms: O_19  and  C_8 
REMARK    5  A    between atoms: C_21  and  O_19 
ROOT
ATOM      1  C   UNL d   1      58.344  -0.725  30.467  0.00  0.00     0.099 A 
ATOM      2  C   UNL d   1      57.680  -1.126  30.747  0.00  0.00     0.093 A 
ATOM      3  C   UNL d   1      58.813  -1.052  29.865  0.00  0.00     0.093 A 
ATOM      4  N   UNL d   1      57.485  -1.867  30.417  0.00  0.00    -0.191 NA
ATOM      5  C   UNL d   1      57.955  -2.194  29.816  0.00  0.00     0.369 A 
ATOM      6  N   UNL d   1      58.620  -1.781  29.542  0.00  0.00    -0.191 NA
ATOM      7  O   UNL d   1      57.759  -2.927  29.493  0.00  0.00    -0.242 OA
ATOM      8  C   UNL d   1      59.473  -0.641  29.594  0.00  0.00     0.021 C 
ENDROOT
BRANCH   2   9
ATOM      9  C   UNL d   1      57.210  -0.805  31.345  0.00  0.00     0.018 A 
ATOM     10  C   UNL d   1      57.231  -1.142  32.094  0.00  0.00     0.003 A 
ATOM     11  C   UNL d   1      56.768  -0.830  32.694  0.00  0.00     0.024 A 
ATOM     12  C   UNL d   1      56.276  -0.174  32.550  0.00  0.00     0.127 A 
ATOM     13  C   UNL d   1      56.258   0.163  31.792  0.00  0.00     0.024 A 
ATOM     14  C   UNL d   1      56.726  -0.155  31.191  0.00  0.00     0.003 A 
BRANCH  12  15
ATOM     15  N   UNL d   1      55.808   0.143  33.151  0.00  0.00    -0.114 N 
ATOM     16  O   UNL d   1      54.989   0.190  33.055  0.00  0.00    -0.532 OA
ATOM     17  O   UNL d   1      56.159   0.414  33.847  0.00  0.00    -0.532 OA
ENDBRANCH  12  15
ENDBRANCH   2   9
BRANCH   1  18
ATOM     18  C   UNL d   1      58.542   0.007  30.787  0.00  0.00     0.303 C 
ATOM     19  O   UNL d   1      58.122   0.682  30.568  0.00  0.00    -0.259 OA
BRANCH  18  20
ATOM     20  O   UNL d   1      59.163   0.070  31.328  0.00  0.00    -0.271 OA
BRANCH  20  21
ATOM     21  C   UNL d   1      59.728   0.665  31.240  0.00  0.00     0.126 C 
ATOM     22  C   UNL d   1      60.381   0.680  31.733  0.00  0.00     0.029 C 
ENDBRANCH  20  21
ENDBRANCH  18  20
ENDBRANCH   1  18
TORSDOF 5
ENDMDL
MODEL 5
REMARK VINA RESULT:      -0.5      1.403      3.929
REMARK  5 active torsions:
REMARK  status: ('A' for Active; 'I' for Inactive)
REMARK    1  A    between atoms: C_8  and  C_1 
REMARK    2  A    between atoms: C_10  and  C_2 
REMARK    3  A    between atoms: N_6  and  C_9 
REMARK    4  A    between atoms: O_19  and  C_8 
REMARK    5  A    between atoms: C_21  and  O_19 
ROOT
ATOM      1  C   UNL d   1      58.983  -0.556  29.744  0.00  0.00     0.099 A 
ATOM      2  C   UNL d   1      59.497  -1.006  29.279  0.00  0.00     0.093 A 
ATOM      3  C   UNL d   1      59.140   0.245  29.895  0.00  0.00     0.093 A 
ATOM      4  N   UNL d   1      60.177  -0.643  28.962  0.00  0.00    -0.191 NA
ATOM      5  C   UNL d   1      60.334   0.158  29.113  0.00  0.00     0.369 A 
ATOM      6  N   UNL d   1      59.811   0.599  29.581  0.00  0.00    -0.191 NA
ATOM      7  O   UNL d   1      61.008   0.512  28.797  0.00  0.00    -0.242 OA
ATOM      8  C   UNL d   1      58.621   0.682  30.360  0.00  0.00     0.021 C 
ENDROOT
BRANCH   2   9
ATOM      9  C   UNL d   1      59.345  -1.802  29.127  0.00  0.00     0.018 A 
ATOM     10  C   UNL d   1      59.799  -2.374  29.501  0.00  0.00     0.003 A 
ATOM     11  C   UNL d   1      59.656  -3.168  29.356  0.00  0.00     0.024 A 
ATOM     12  C   UNL d   1      59.052  -3.399  28.831  0.00  0.00     0.127 A 
ATOM     13  C   UNL d   1      58.595  -2.817  28.455  0.00  0.00     0.024 A 
ATOM     14  C   UNL d   1      58.743  -2.020  28.604  0.00  0.00     0.003 A 
BRANCH  12  15
ATOM     15  N   UNL d   1      58.904  -4.196  28.682  0.00  0.00    -0.114 N 
ATOM     16  O   UNL d   1      58.136  -4.450  28.516  0.00  0.00    -0.532 OA
ATOM     17  O   UNL d   1      59.524  -4.742  28.698  0.00  0.00    -0.532 OA
ENDBRANCH  12  15
ENDBRANCH   2   9
BRANCH   1  18
ATOM     18  C   UNL d   1      58.309  -0.907  30.061  0.00  0.00     0.303 C 
ATOM     19  O   UNL d   1      57.946  -1.534  29.668  0.00  0.00    -0.259 OA
BRANCH  18  20
ATOM     20  O   UNL d   1      57.993  -0.633  30.773  0.00  0.00    -0.271 OA
BRANCH  20  21
ATOM     21  C   UNL d   1      57.385  -1.051  31.143  0.00  0.00     0.126 C 
ATOM     22  C   UNL d   1      56.979  -0.710  31.766  0.00  0.00     0.029 C 
ENDBRANCH  20  21
ENDBRANCH  18  20
ENDBRANCH   1  18
TORSDOF 5
ENDMDL
MODEL 6
REMARK VINA RESULT:       0.7      2.409      4.016
REMARK  5 active torsions:
REMARK  status: ('A' for Active; 'I' for Inactive)
REMARK    1  A    between atoms: C_8  and  C_1 
REMARK    2  A    between atoms: C_10  and  C_2 
REMARK    3  A    between atoms: N_6  and  C_9 
REMARK    4  A    between atoms: O_19  and  C_8 
REMARK    5  A    between atoms: C_21  and  O_19 
ROOT
ATOM      1  C   UNL d   1      58.775   0.088  30.604  0.00  0.00     0.099 A 
ATOM      2  C   UNL d   1      58.648   0.165  31.416  0.00  0.00     0.093 A 
ATOM      3  C   UNL d   1      59.532   0.202  30.281  0.00  0.00     0.093 A 
ATOM      4  N   UNL d   1      59.291   0.360  31.910  0.00  0.00    -0.191 NA
ATOM      5  C   UNL d   1      60.047   0.474  31.587  0.00  0.00     0.369 A 
ATOM      6  N   UNL d   1      60.163   0.393  30.770  0.00  0.00    -0.191 NA
ATOM      7  O   UNL d   1      60.680   0.666  32.079  0.00  0.00    -0.242 OA
ATOM      8  C   UNL d   1      59.646   0.122  29.470  0.00  0.00     0.021 C 
ENDROOT
BRANCH   2   9
ATOM      9  C   UNL d   1      57.898   0.053  31.741  0.00  0.00     0.018 A 
ATOM     10  C   UNL d   1      57.526   0.682  32.116  0.00  0.00     0.003 A 
ATOM     11  C   UNL d   1      56.781   0.580  32.442  0.00  0.00     0.024 A 
ATOM     12  C   UNL d   1      56.398  -0.157  32.395  0.00  0.00     0.127 A 
ATOM     13  C   UNL d   1      56.776  -0.790  32.015  0.00  0.00     0.024 A 
ATOM     14  C   UNL d   1      57.526  -0.683  31.689  0.00  0.00     0.003 A 
BRANCH  12  15
ATOM     15  N   UNL d   1      55.648  -0.265  32.721  0.00  0.00    -0.114 N 
ATOM     16  O   UNL d   1      55.223   0.385  33.002  0.00  0.00    -0.532 OA
ATOM     17  O   UNL d   1      55.322  -1.022  32.767  0.00  0.00    -0.532 OA
ENDBRANCH  12  15
ENDBRANCH   2   9
BRANCH   1  18
ATOM     18  C   UNL d   1      58.146  -0.104  30.109  0.00  0.00     0.303 C 
ATOM     19  O   UNL d   1      57.647   0.489  29.826  0.00  0.00    -0.259 OA
BRANCH  18  20
ATOM     20  O   UNL d   1      58.010  -0.890  29.895  0.00  0.00    -0.271 OA
BRANCH  20  21
ATOM     21  C   UNL d   1      58.069  -1.117  29.103  0.00  0.00     0.126 C 
ATOM     22  C   UNL d   1      58.396  -1.843  28.914  0.00  0.00     0.029 C 
ENDBRANCH  20  21
ENDBRANCH  18  20
ENDBRANCH   1  18
TORSDOF 5
ENDMDL
MODEL 7
REMARK VINA RESULT:       0.7      2.793      5.260
REMARK  5 active torsions:
REMARK  status: ('A' for Active; 'I' for Inactive)
REMARK    1  A    between atoms: C_8  and  C_1 
REMARK    2  A    between atoms: C_10  and  C_2 
REMARK    3  A    between atoms: N_6  and  C_9 
REMARK    4  A    between atoms: O_19  and  C_8 
REMARK    5  A    between atoms: C_21  and  O_19 
ROOT
ATOM      1  C   UNL d   1      56.988   0.190  32.838  0.00  0.00     0.099 A 
ATOM      2  C   UNL d   1      57.720   0.216  32.457  0.00  0.00     0.093 A 
ATOM      3  C   UNL d   1      56.931   0.326  33.655  0.00  0.00     0.093 A 
ATOM      4  N   UNL d   1      58.404   0.382  32.905  0.00  0.00    -0.191 NA
ATOM      5  C   UNL d   1      58.347   0.518  33.722  0.00  0.00     0.369 A 
ATOM      6  N   UNL d   1      57.606   0.489  34.094  0.00  0.00    -0.191 NA
ATOM      7  O   UNL d   1      59.025   0.681  34.161  0.00  0.00    -0.242 OA
ATOM      8  C   UNL d   1      56.196   0.297  34.023  0.00  0.00     0.021 C 
ENDROOT
BRANCH   2   9
ATOM      9  C   UNL d   1      57.782   0.081  31.646  0.00  0.00     0.018 A 
ATOM     10  C   UNL d   1      58.023  -0.658  31.380  0.00  0.00     0.003 A 
ATOM     11  C   UNL d   1      58.087  -0.801  30.575  0.00  0.00     0.024 A 
ATOM     12  C   UNL d   1      57.910  -0.203  30.025  0.00  0.00     0.127 A 
ATOM     13  C   UNL d   1      57.666   0.542  30.297  0.00  0.00     0.024 A 
ATOM     14  C   UNL d   1      57.603   0.682  31.108  0.00  0.00     0.003 A 
BRANCH  12  15
ATOM     15  N   UNL d   1      57.973  -0.342  29.214  0.00  0.00    -0.114 N 
ATOM     16  O   UNL d   1      57.836   0.271  28.678  0.00  0.00    -0.532 OA
ATOM     17  O   UNL d   1      58.173  -1.094  28.939  0.00  0.00    -0.532 OA
ENDBRANCH  12  15
ENDBRANCH   2   9
BRANCH   1  18
ATOM     18  C   UNL d   1      56.309   0.027  32.403  0.00  0.00     0.303 C 
ATOM     19  O   UNL d   1      55.900   0.639  32.030  0.00  0.00    -0.259 OA
BRANCH  18  20
ATOM     20  O   UNL d   1      56.032  -0.749  32.338  0.00  0.00    -0.271 OA
BRANCH  20  21
ATOM     21  C   UNL d   1      55.325  -0.967  32.703  0.00  0.00     0.126 C 
ATOM     22  C   UNL d   1      55.145  -1.760  32.796  0.00  0.00     0.029 C 
ENDBRANCH  20  21
ENDBRANCH  18  20
ENDBRANCH   1  18
TORSDOF 5
ENDMDL
