MODEL 1
REMARK VINA RESULT:      53.5      0.000      0.000
REMARK  5 active torsions:
REMARK  status: ('A' for Active; 'I' for Inactive)
REMARK    1  A    between atoms: S_2  and  C_1 
REMARK    2  A    between atoms: C_8  and  S_2 
REMARK    3  A    between atoms: C_18  and  N_6 
REMARK    4  A    between atoms: O_22  and  C_16 
REMARK    5  A    between atoms: C_23  and  O_22 
ROOT
ATOM      1  C   UNL d   1     -50.499  25.906  33.442  0.00  0.00     0.144 A 
ATOM      2  C   UNL d   1     -51.273  25.631  33.439  0.00  0.00     0.209 A 
ATOM      3  C   UNL d   1     -51.443  24.833  33.401  0.00  0.00     0.058 A 
ATOM      4  C   UNL d   1     -49.870  25.354  33.404  0.00  0.00     0.095 A 
ATOM      5  N   UNL d   1     -50.033  24.544  33.364  0.00  0.00    -0.303 N 
ATOM      6  C   UNL d   1     -50.814  24.281  33.363  0.00  0.00     0.067 A 
ATOM      7  C   UNL d   1     -50.974  23.473  33.324  0.00  0.00     0.020 A 
ATOM      8  C   UNL d   1     -52.214  24.561  33.398  0.00  0.00     0.029 A 
ATOM      9  O   UNL d   1     -51.892  26.175  33.477  0.00  0.00    -0.286 OA
ATOM     10  C   UNL d   1     -52.390  23.756  33.360  0.00  0.00     0.100 A 
ATOM     11  C   UNL d   1     -51.761  23.204  33.322  0.00  0.00     0.026 A 
ENDROOT
BRANCH   1  12
ATOM     12  S   UNL d   1     -50.323  26.711  33.480  0.00  0.00     0.214 S 
ATOM     13  O   UNL d   1     -49.528  26.546  33.618  0.00  0.00    -0.217 OA
ATOM     14  O   UNL d   1     -51.128  26.883  33.341  0.00  0.00    -0.217 OA
BRANCH  12  15
ATOM     15  C   UNL d   1     -50.159  27.520  33.517  0.00  0.00     0.088 A 
ATOM     16  C   UNL d   1     -49.412  27.786  33.750  0.00  0.00     0.011 A 
ATOM     17  C   UNL d   1     -49.247  28.592  33.787  0.00  0.00     0.001 A 
ATOM     18  C   UNL d   1     -49.830  29.144  33.591  0.00  0.00     0.000 A 
ATOM     19  C   UNL d   1     -50.578  28.882  33.358  0.00  0.00     0.001 A 
ATOM     20  C   UNL d   1     -49.667  29.958  33.627  0.00  0.00     0.000 C 
ATOM     21  C   UNL d   1     -50.744  28.077  33.321  0.00  0.00     0.011 A 
ENDBRANCH  12  15
ENDBRANCH   1  12
BRANCH   5  22
ATOM     22  C   UNL d   1     -49.419  23.993  33.327  0.00  0.00     0.080 C 
ATOM     23  C   UNL d   1     -48.842  23.990  33.914  0.00  0.00     0.021 C 
ENDBRANCH   5  22
BRANCH  10  24
ATOM     24  O   UNL d   1     -53.161  23.485  33.357  0.00  0.00    -0.305 OA
BRANCH  24  25
ATOM     25  C   UNL d   1     -53.529  23.230  34.046  0.00  0.00     0.123 C 
ATOM     26  C   UNL d   1     -54.302  23.454  34.219  0.00  0.00     0.029 C 
ENDBRANCH  24  25
ENDBRANCH  10  24
TORSDOF 5
ENDMDL
