MODEL 1
REMARK VINA RESULT:      -3.0      0.000      0.000
REMARK  6 active torsions:
REMARK  status: ('A' for Active; 'I' for Inactive)
REMARK    1  A    between atoms: C_10  and  N_3 
REMARK    2  A    between atoms: C_11  and  N_8 
REMARK    3  A    between atoms: C_12  and  C_11 
REMARK    4  A    between atoms: O_15  and  C_12 
REMARK    5  A    between atoms: C_18  and  O_15 
REMARK    6  A    between atoms: C_22  and  C_18 
ROOT
ATOM      1  C   UNL d   1      32.704  22.510 -20.002  0.00  0.00     0.191 A 
ATOM      2  C   UNL d   1      32.485  22.731 -20.773  0.00  0.00     0.196 A 
ATOM      3  N   UNL d   1      32.471  23.122 -19.494  0.00  0.00    -0.193 N 
ATOM      4  N   UNL d   1      32.119  23.701 -19.947  0.00  0.00    -0.058 NA
ATOM      5  N   UNL d   1      32.122  23.474 -20.724  0.00  0.00    -0.122 NA
ATOM      6  N   UNL d   1      33.077  21.795 -19.877  0.00  0.00    -0.204 NA
ATOM      7  C   UNL d   1      32.645  22.231 -21.398  0.00  0.00     0.289 A 
ATOM      8  N   UNL d   1      33.021  21.509 -21.276  0.00  0.00    -0.249 N 
ATOM      9  C   UNL d   1      33.241  21.288 -20.504  0.00  0.00     0.187 A 
ATOM     10  O   UNL d   1      32.426  22.452 -22.169  0.00  0.00    -0.265 OA
ENDROOT
BRANCH   8  11
ATOM     11  C   UNL d   1      33.188  20.996 -21.906  0.00  0.00     0.153 C 
BRANCH  11  12
ATOM     12  C   UNL d   1      33.018  20.185 -21.845  0.00  0.00     0.318 C 
ATOM     13  O   UNL d   1      33.171  19.787 -21.140  0.00  0.00    -0.257 OA
BRANCH  12  14
ATOM     14  O   UNL d   1      32.700  19.790 -22.488  0.00  0.00    -0.270 OA
BRANCH  14  15
ATOM     15  C   UNL d   1      32.830  18.979 -22.581  0.00  0.00     0.126 C 
BRANCH  15  16
ATOM     16  C   UNL d   1      32.568  18.604 -23.252  0.00  0.00     0.025 A 
ATOM     17  C   UNL d   1      31.981  18.025 -23.195  0.00  0.00     0.002 A 
ATOM     18  C   UNL d   1      31.709  17.638 -23.873  0.00  0.00     0.000 A 
ATOM     19  C   UNL d   1      32.030  17.836 -24.606  0.00  0.00     0.000 A 
ATOM     20  C   UNL d   1      32.617  18.415 -24.663  0.00  0.00     0.000 A 
ATOM     21  C   UNL d   1      32.884  18.796 -23.988  0.00  0.00     0.002 A 
ENDBRANCH  15  16
ENDBRANCH  14  15
ENDBRANCH  12  14
ENDBRANCH  11  12
ENDBRANCH   8  11
BRANCH   3  22
ATOM     22  C   UNL d   1      32.557  23.177 -18.694  0.00  0.00     0.086 A 
ATOM     23  C   UNL d   1      32.039  22.759 -18.184  0.00  0.00     0.019 A 
ATOM     24  C   UNL d   1      32.132  22.819 -17.382  0.00  0.00     0.002 A 
ATOM     25  C   UNL d   1      32.744  23.296 -17.056  0.00  0.00     0.000 A 
ATOM     26  C   UNL d   1      33.241  23.696 -17.557  0.00  0.00     0.002 A 
ATOM     27  C   UNL d   1      32.844  23.360 -16.219  0.00  0.00     0.000 C 
ATOM     28  C   UNL d   1      33.157  23.644 -18.372  0.00  0.00     0.019 A 
ENDBRANCH   3  22
TORSDOF 6
ENDMDL
MODEL 2
REMARK VINA RESULT:      -2.7      3.263      6.906
REMARK  6 active torsions:
REMARK  status: ('A' for Active; 'I' for Inactive)
REMARK    1  A    between atoms: C_10  and  N_3 
REMARK    2  A    between atoms: C_11  and  N_8 
REMARK    3  A    between atoms: C_12  and  C_11 
REMARK    4  A    between atoms: O_15  and  C_12 
REMARK    5  A    between atoms: C_18  and  O_15 
REMARK    6  A    between atoms: C_22  and  C_18 
ROOT
ATOM      1  C   UNL d   1      31.182  16.887 -23.990  0.00  0.00     0.191 A 
ATOM      2  C   UNL d   1      31.884  16.779 -24.423  0.00  0.00     0.196 A 
ATOM      3  N   UNL d   1      30.624  16.351 -24.287  0.00  0.00    -0.193 N 
ATOM      4  N   UNL d   1      30.980  15.928 -24.886  0.00  0.00    -0.058 NA
ATOM      5  N   UNL d   1      31.743  16.179 -24.977  0.00  0.00    -0.122 NA
ATOM      6  N   UNL d   1      31.154  17.448 -23.398  0.00  0.00    -0.204 NA
ATOM      7  C   UNL d   1      32.539  17.236 -24.251  0.00  0.00     0.289 A 
ATOM      8  N   UNL d   1      32.515  17.802 -23.655  0.00  0.00    -0.249 N 
ATOM      9  C   UNL d   1      31.812  17.910 -23.222  0.00  0.00     0.187 A 
ATOM     10  O   UNL d   1      33.241  17.128 -24.684  0.00  0.00    -0.265 OA
ENDROOT
BRANCH   8  11
ATOM     11  C   UNL d   1      33.176  18.270 -23.475  0.00  0.00     0.153 C 
BRANCH  11  12
ATOM     12  C   UNL d   1      33.120  19.098 -23.481  0.00  0.00     0.318 C 
ATOM     13  O   UNL d   1      33.025  19.498 -24.195  0.00  0.00    -0.257 OA
BRANCH  12  14
ATOM     14  O   UNL d   1      33.160  19.511 -22.774  0.00  0.00    -0.270 OA
BRANCH  14  15
ATOM     15  C   UNL d   1      33.238  20.333 -22.778  0.00  0.00     0.126 C 
BRANCH  15  16
ATOM     16  C   UNL d   1      33.087  20.756 -22.101  0.00  0.00     0.025 A 
ATOM     17  C   UNL d   1      33.241  20.418 -21.363  0.00  0.00     0.002 A 
ATOM     18  C   UNL d   1      33.089  20.841 -20.670  0.00  0.00     0.000 A 
ATOM     19  C   UNL d   1      32.783  21.604 -20.723  0.00  0.00     0.000 A 
ATOM     20  C   UNL d   1      32.628  21.943 -21.461  0.00  0.00     0.000 A 
ATOM     21  C   UNL d   1      32.780  21.519 -22.146  0.00  0.00     0.002 A 
ENDBRANCH  15  16
ENDBRANCH  14  15
ENDBRANCH  12  14
ENDBRANCH  11  12
ENDBRANCH   8  11
BRANCH   3  22
ATOM     22  C   UNL d   1      29.860  16.236 -24.056  0.00  0.00     0.086 A 
ATOM     23  C   UNL d   1      29.690  15.778 -23.374  0.00  0.00     0.019 A 
ATOM     24  C   UNL d   1      28.920  15.667 -23.149  0.00  0.00     0.002 A 
ATOM     25  C   UNL d   1      28.291  16.006 -23.592  0.00  0.00     0.000 A 
ATOM     26  C   UNL d   1      28.464  16.448 -24.250  0.00  0.00     0.002 A 
ATOM     27  C   UNL d   1      27.486  15.892 -23.359  0.00  0.00     0.000 C 
ATOM     28  C   UNL d   1      29.241  16.568 -24.489  0.00  0.00     0.019 A 
ENDBRANCH   3  22
TORSDOF 6
ENDMDL
MODEL 3
REMARK VINA RESULT:      -2.5      2.213      3.705
REMARK  6 active torsions:
REMARK  status: ('A' for Active; 'I' for Inactive)
REMARK    1  A    between atoms: C_10  and  N_3 
REMARK    2  A    between atoms: C_11  and  N_8 
REMARK    3  A    between atoms: C_12  and  C_11 
REMARK    4  A    between atoms: O_15  and  C_12 
REMARK    5  A    between atoms: C_18  and  O_15 
REMARK    6  A    between atoms: C_22  and  C_18 
ROOT
ATOM      1  C   UNL d   1      32.901  20.086 -22.832  0.00  0.00     0.191 A 
ATOM      2  C   UNL d   1      33.059  19.998 -23.644  0.00  0.00     0.196 A 
ATOM      3  N   UNL d   1      32.989  20.889 -22.649  0.00  0.00    -0.193 N 
ATOM      4  N   UNL d   1      33.196  21.280 -23.334  0.00  0.00    -0.058 NA
ATOM      5  N   UNL d   1      33.241  20.749 -23.943  0.00  0.00    -0.122 NA
ATOM      6  N   UNL d   1      32.703  19.432 -22.386  0.00  0.00    -0.204 NA
ATOM      7  C   UNL d   1      33.014  19.259 -23.986  0.00  0.00     0.289 A 
ATOM      8  N   UNL d   1      32.815  18.597 -23.540  0.00  0.00    -0.249 N 
ATOM      9  C   UNL d   1      32.657  18.685 -22.727  0.00  0.00     0.187 A 
ATOM     10  O   UNL d   1      33.172  19.171 -24.798  0.00  0.00    -0.265 OA
ENDROOT
BRANCH   8  11
ATOM     11  C   UNL d   1      32.768  17.842 -23.881  0.00  0.00     0.153 C 
BRANCH  11  12
ATOM     12  C   UNL d   1      32.270  17.263 -23.556  0.00  0.00     0.318 C 
ATOM     13  O   UNL d   1      32.469  16.905 -22.841  0.00  0.00    -0.257 OA
BRANCH  12  14
ATOM     14  O   UNL d   1      31.583  17.054 -23.951  0.00  0.00    -0.270 OA
BRANCH  14  15
ATOM     15  C   UNL d   1      31.127  16.419 -23.681  0.00  0.00     0.126 C 
BRANCH  15  16
ATOM     16  C   UNL d   1      30.383  16.301 -23.983  0.00  0.00     0.025 A 
ATOM     17  C   UNL d   1      29.732  16.281 -23.473  0.00  0.00     0.002 A 
ATOM     18  C   UNL d   1      28.971  16.161 -23.772  0.00  0.00     0.000 A 
ATOM     19  C   UNL d   1      28.868  16.062 -24.584  0.00  0.00     0.000 A 
ATOM     20  C   UNL d   1      29.519  16.081 -25.094  0.00  0.00     0.000 A 
ATOM     21  C   UNL d   1      30.272  16.201 -24.793  0.00  0.00     0.002 A 
ENDBRANCH  15  16
ENDBRANCH  14  15
ENDBRANCH  12  14
ENDBRANCH  11  12
ENDBRANCH   8  11
BRANCH   3  22
ATOM     22  C   UNL d   1      32.897  21.259 -21.938  0.00  0.00     0.086 A 
ATOM     23  C   UNL d   1      33.241  20.935 -21.245  0.00  0.00     0.019 A 
ATOM     24  C   UNL d   1      33.144  21.312 -20.535  0.00  0.00     0.002 A 
ATOM     25  C   UNL d   1      32.702  22.027 -20.487  0.00  0.00     0.000 A 
ATOM     26  C   UNL d   1      32.373  22.334 -21.162  0.00  0.00     0.002 A 
ATOM     27  C   UNL d   1      32.599  22.424 -19.748  0.00  0.00     0.000 C 
ATOM     28  C   UNL d   1      32.464  21.960 -21.888  0.00  0.00     0.019 A 
ENDBRANCH   3  22
TORSDOF 6
ENDMDL
