MODEL 1
REMARK VINA RESULT:       1.9      0.000      0.000
REMARK  4 active torsions:
REMARK  status: ('A' for Active; 'I' for Inactive)
REMARK    1  A    between atoms: S_3  and  N_1 
REMARK    2  A    between atoms: C_9  and  S_3 
REMARK    3  A    between atoms: C_10  and  N_5 
REMARK    4  A    between atoms: C_15  and  C_10 
ROOT
ATOM      1  N   UNL d   1      32.392  20.788 -21.823  0.00  0.00    -0.195 N 
ATOM      2  C   UNL d   1      32.561  21.308 -22.437  0.00  0.00     0.193 A 
ATOM      3  C   UNL d   1      32.897  20.884 -23.054  0.00  0.00     0.185 A 
ATOM      4  N   UNL d   1      32.940  20.090 -22.830  0.00  0.00    -0.269 N 
ATOM      5  C   UNL d   1      32.626  20.037 -22.065  0.00  0.00     0.179 A 
ATOM      6  N   UNL d   1      32.453  22.119 -22.516  0.00  0.00    -0.223 NA
ATOM      7  N   UNL d   1      33.126  21.265 -23.751  0.00  0.00    -0.224 NA
ATOM      8  C   UNL d   1      32.677  22.502 -23.200  0.00  0.00     0.101 A 
ATOM      9  C   UNL d   1      33.015  22.078 -23.825  0.00  0.00     0.101 A 
ATOM     10  C   UNL d   1      33.238  22.466 -24.512  0.00  0.00     0.021 A 
ATOM     11  C   UNL d   1      32.567  23.312 -23.276  0.00  0.00     0.021 A 
ATOM     12  C   UNL d   1      33.124  23.280 -24.577  0.00  0.00     0.002 A 
ATOM     13  C   UNL d   1      32.790  23.700 -23.962  0.00  0.00     0.002 A 
ENDROOT
BRANCH   1  14
ATOM     14  S   UNL d   1      32.029  21.284 -21.170  0.00  0.00     0.274 S 
ATOM     15  O   UNL d   1      31.173  21.492 -21.255  0.00  0.00    -0.200 OA
ATOM     16  O   UNL d   1      31.415  21.144 -21.719  0.00  0.00    -0.200 OA
BRANCH  14  17
ATOM     17  C   UNL d   1      32.328  21.608 -20.473  0.00  0.00     0.104 A 
ATOM     18  C   UNL d   1      32.610  21.112 -19.877  0.00  0.00     0.015 A 
ATOM     19  C   UNL d   1      32.913  21.437 -19.172  0.00  0.00     0.030 A 
ATOM     20  C   UNL d   1      32.928  22.255 -19.076  0.00  0.00     0.140 A 
ATOM     21  C   UNL d   1      32.642  22.756 -19.680  0.00  0.00     0.030 A 
ATOM     22  F   UNL d   1      33.241  22.518 -18.353  0.00  0.00    -0.204 F 
ATOM     23  C   UNL d   1      32.345  22.430 -20.373  0.00  0.00     0.015 A 
ENDBRANCH  14  17
ENDBRANCH   1  14
BRANCH   4  24
ATOM     24  C   UNL d   1      33.241  19.469 -23.283  0.00  0.00     0.108 C 
BRANCH  24  25
ATOM     25  C   UNL d   1      32.934  18.702 -23.194  0.00  0.00     0.118 A 
ATOM     26  O   UNL d   1      33.053  18.205 -22.542  0.00  0.00    -0.304 OA
ATOM     27  C   UNL d   1      32.646  17.485 -22.682  0.00  0.00     0.123 A 
ATOM     28  C   UNL d   1      32.277  17.547 -23.424  0.00  0.00     0.029 A 
ATOM     29  C   UNL d   1      32.458  18.299 -23.736  0.00  0.00     0.028 A 
ENDBRANCH  24  25
ENDBRANCH   4  24
TORSDOF 4
ENDMDL
MODEL 2
REMARK VINA RESULT:       3.6      3.255      5.625
REMARK  4 active torsions:
REMARK  status: ('A' for Active; 'I' for Inactive)
REMARK    1  A    between atoms: S_3  and  N_1 
REMARK    2  A    between atoms: C_9  and  S_3 
REMARK    3  A    between atoms: C_10  and  N_5 
REMARK    4  A    between atoms: C_15  and  C_10 
ROOT
ATOM      1  N   UNL d   1      31.356  17.948 -24.571  0.00  0.00    -0.195 N 
ATOM      2  C   UNL d   1      31.734  17.493 -24.000  0.00  0.00     0.193 A 
ATOM      3  C   UNL d   1      32.477  17.809 -23.862  0.00  0.00     0.185 A 
ATOM      4  N   UNL d   1      32.573  18.469 -24.349  0.00  0.00    -0.269 N 
ATOM      5  C   UNL d   1      31.873  18.550 -24.787  0.00  0.00     0.179 A 
ATOM      6  N   UNL d   1      31.495  16.825 -23.584  0.00  0.00    -0.223 NA
ATOM      7  N   UNL d   1      32.987  17.463 -23.310  0.00  0.00    -0.224 NA
ATOM      8  C   UNL d   1      31.992  16.479 -23.038  0.00  0.00     0.101 A 
ATOM      9  C   UNL d   1      32.743  16.795 -22.896  0.00  0.00     0.101 A 
ATOM     10  C   UNL d   1      33.240  16.444 -22.346  0.00  0.00     0.021 A 
ATOM     11  C   UNL d   1      31.751  15.812 -22.624  0.00  0.00     0.021 A 
ATOM     12  C   UNL d   1      32.987  15.774 -21.935  0.00  0.00     0.002 A 
ATOM     13  C   UNL d   1      32.247  15.461 -22.074  0.00  0.00     0.002 A 
ENDROOT
BRANCH   1  14
ATOM     14  S   UNL d   1      30.551  17.574 -24.695  0.00  0.00     0.274 S 
ATOM     15  O   UNL d   1      30.533  16.786 -25.097  0.00  0.00    -0.200 OA
ATOM     16  O   UNL d   1      31.103  17.036 -25.017  0.00  0.00    -0.200 OA
BRANCH  14  17
ATOM     17  C   UNL d   1      29.782  17.811 -24.509  0.00  0.00     0.104 A 
ATOM     18  C   UNL d   1      29.430  17.551 -23.810  0.00  0.00     0.015 A 
ATOM     19  C   UNL d   1      28.654  17.789 -23.621  0.00  0.00     0.030 A 
ATOM     20  C   UNL d   1      28.244  18.285 -24.135  0.00  0.00     0.140 A 
ATOM     21  C   UNL d   1      28.603  18.548 -24.843  0.00  0.00     0.030 A 
ATOM     22  F   UNL d   1      27.477  18.487 -23.892  0.00  0.00    -0.204 F 
ATOM     23  C   UNL d   1      29.368  18.309 -25.024  0.00  0.00     0.015 A 
ENDBRANCH  14  17
ENDBRANCH   1  14
BRANCH   4  24
ATOM     24  C   UNL d   1      33.238  18.956 -24.392  0.00  0.00     0.108 C 
BRANCH  24  25
ATOM     25  C   UNL d   1      33.166  19.774 -24.266  0.00  0.00     0.118 A 
ATOM     26  O   UNL d   1      33.117  20.148 -23.529  0.00  0.00    -0.304 OA
ATOM     27  C   UNL d   1      33.050  20.975 -23.658  0.00  0.00     0.123 A 
ATOM     28  C   UNL d   1      33.058  21.101 -24.478  0.00  0.00     0.029 A 
ATOM     29  C   UNL d   1      33.130  20.358 -24.850  0.00  0.00     0.028 A 
ENDBRANCH  24  25
ENDBRANCH   4  24
TORSDOF 4
ENDMDL
