MODEL 1
REMARK VINA RESULT:      51.5      0.000      0.000
REMARK  6 active torsions:
REMARK  status: ('A' for Active; 'I' for Inactive)
REMARK    1  A    between atoms: C_6  and  N_2 
REMARK    2  A    between atoms: C_7  and  C_3 
REMARK    3  A    between atoms: C_10  and  C_6 
REMARK    4  A    between atoms: C_15  and  C_7 
REMARK    5  A    between atoms: O_8  and  C_10 
REMARK    6  A    between atoms: C_9  and  O_8 
ROOT
ATOM      1  N   UNL d   1      58.087  49.691  51.815  0.00  0.00    -0.227 NA
ATOM      2  N   UNL d   1      59.078  49.669  50.917  0.00  0.00    -0.287 N 
ATOM      3  C   UNL d   1      58.921  49.676  51.740  0.00  0.00     0.148 A 
ATOM      4  C   UNL d   1      58.366  49.680  50.511  0.00  0.00     0.083 A 
ATOM      5  C   UNL d   1      57.727  49.694  51.090  0.00  0.00     0.099 A 
ATOM      6  C   UNL d   1      58.207  49.679  49.713  0.00  0.00     0.019 A 
ATOM      7  C   UNL d   1      56.956  49.707  50.775  0.00  0.00     0.021 A 
ATOM      8  C   UNL d   1      57.432  49.692  49.481  0.00  0.00     0.002 A 
ATOM      9  C   UNL d   1      56.833  49.705  50.023  0.00  0.00     0.002 A 
ENDROOT
BRANCH   2  10
ATOM     10  C   UNL d   1      59.856  49.654  50.737  0.00  0.00     0.108 C 
BRANCH  10  11
ATOM     11  C   UNL d   1      60.186  49.075  50.263  0.00  0.00     0.142 C 
BRANCH  11  12
ATOM     12  O   UNL d   1      60.992  48.962  50.190  0.00  0.00    -0.304 OA
BRANCH  12  13
ATOM     13  C   UNL d   1      61.338  48.222  50.081  0.00  0.00     0.100 A 
ATOM     14  C   UNL d   1      62.006  48.093  49.615  0.00  0.00     0.025 A 
ATOM     15  C   UNL d   1      62.351  47.354  49.507  0.00  0.00     0.002 A 
ATOM     16  C   UNL d   1      62.008  46.699  49.890  0.00  0.00     0.000 A 
ATOM     17  C   UNL d   1      61.329  46.803  50.369  0.00  0.00     0.002 A 
ATOM     18  C   UNL d   1      60.995  47.566  50.464  0.00  0.00     0.025 A 
ENDBRANCH  12  13
ENDBRANCH  11  12
ENDBRANCH  10  11
ENDBRANCH   2  10
BRANCH   3  19
ATOM     19  C   UNL d   1      59.693  49.663  51.976  0.00  0.00     0.037 C 
BRANCH  19  20
ATOM     20  C   UNL d   1      59.876  49.707  52.792  0.00  0.00     0.003 C 
ATOM     21  C   UNL d   1      60.668  49.684  53.051  0.00  0.00     0.000 C 
ENDBRANCH  19  20
ENDBRANCH   3  19
TORSDOF 6
ENDMDL
MODEL 2
REMARK VINA RESULT:      53.7      1.119      3.771
REMARK  6 active torsions:
REMARK  status: ('A' for Active; 'I' for Inactive)
REMARK    1  A    between atoms: C_6  and  N_2 
REMARK    2  A    between atoms: C_7  and  C_3 
REMARK    3  A    between atoms: C_10  and  C_6 
REMARK    4  A    between atoms: C_15  and  C_7 
REMARK    5  A    between atoms: O_8  and  C_10 
REMARK    6  A    between atoms: C_9  and  O_8 
ROOT
ATOM      1  N   UNL d   1      61.347  47.783  51.508  0.00  0.00    -0.227 NA
ATOM      2  N   UNL d   1      60.823  48.692  50.680  0.00  0.00    -0.287 N 
ATOM      3  C   UNL d   1      61.024  48.554  51.481  0.00  0.00     0.148 A 
ATOM      4  C   UNL d   1      61.016  48.028  50.240  0.00  0.00     0.083 A 
ATOM      5  C   UNL d   1      61.354  47.442  50.773  0.00  0.00     0.099 A 
ATOM      6  C   UNL d   1      60.936  47.874  49.444  0.00  0.00     0.019 A 
ATOM      7  C   UNL d   1      61.586  46.724  50.419  0.00  0.00     0.021 A 
ATOM      8  C   UNL d   1      61.184  47.152  49.172  0.00  0.00     0.002 A 
ATOM      9  C   UNL d   1      61.501  46.603  49.672  0.00  0.00     0.002 A 
ENDROOT
BRANCH   2  10
ATOM     10  C   UNL d   1      60.502  49.412  50.546  0.00  0.00     0.108 C 
BRANCH  10  11
ATOM     11  C   UNL d   1      59.703  49.561  50.638  0.00  0.00     0.142 C 
BRANCH  11  12
ATOM     12  O   UNL d   1      59.194  49.675  50.009  0.00  0.00    -0.304 OA
BRANCH  12  13
ATOM     13  C   UNL d   1      58.373  49.685  50.085  0.00  0.00     0.100 A 
ATOM     14  C   UNL d   1      57.981  49.697  50.810  0.00  0.00     0.025 A 
ATOM     15  C   UNL d   1      57.162  49.706  50.885  0.00  0.00     0.002 A 
ATOM     16  C   UNL d   1      56.703  49.703  50.190  0.00  0.00     0.000 A 
ATOM     17  C   UNL d   1      57.077  49.691  49.441  0.00  0.00     0.002 A 
ATOM     18  C   UNL d   1      57.914  49.682  49.390  0.00  0.00     0.025 A 
ENDBRANCH  12  13
ENDBRANCH  11  12
ENDBRANCH  10  11
ENDBRANCH   2  10
BRANCH   3  19
ATOM     19  C   UNL d   1      60.779  49.272  51.756  0.00  0.00     0.037 C 
BRANCH  19  20
ATOM     20  C   UNL d   1      60.747  49.408  52.582  0.00  0.00     0.003 C 
ATOM     21  C   UNL d   1      61.430  49.640  53.001  0.00  0.00     0.000 C 
ENDBRANCH  19  20
ENDBRANCH   3  19
TORSDOF 6
ENDMDL
MODEL 3
REMARK VINA RESULT:      54.2      2.308      4.226
REMARK  6 active torsions:
REMARK  status: ('A' for Active; 'I' for Inactive)
REMARK    1  A    between atoms: C_6  and  N_2 
REMARK    2  A    between atoms: C_7  and  C_3 
REMARK    3  A    between atoms: C_10  and  C_6 
REMARK    4  A    between atoms: C_15  and  C_7 
REMARK    5  A    between atoms: O_8  and  C_10 
REMARK    6  A    between atoms: C_9  and  O_8 
ROOT
ATOM      1  N   UNL d   1      58.814  49.122  50.449  0.00  0.00    -0.227 NA
ATOM      2  N   UNL d   1      58.152  49.525  51.538  0.00  0.00    -0.287 N 
ATOM      3  C   UNL d   1      58.906  49.284  51.265  0.00  0.00     0.148 A 
ATOM      4  C   UNL d   1      57.625  49.510  50.910  0.00  0.00     0.083 A 
ATOM      5  C   UNL d   1      58.052  49.249  50.208  0.00  0.00     0.099 A 
ATOM      6  C   UNL d   1      56.832  49.692  50.875  0.00  0.00     0.019 A 
ATOM      7  C   UNL d   1      57.600  49.200  49.509  0.00  0.00     0.021 A 
ATOM      8  C   UNL d   1      56.459  49.620  50.160  0.00  0.00     0.002 A 
ATOM      9  C   UNL d   1      56.859  49.376  49.502  0.00  0.00     0.002 A 
ENDROOT
BRANCH   2  10
ATOM     10  C   UNL d   1      58.132  49.706  52.316  0.00  0.00     0.108 C 
BRANCH  10  11
ATOM     11  C   UNL d   1      57.441  49.685  52.755  0.00  0.00     0.142 C 
BRANCH  11  12
ATOM     12  O   UNL d   1      57.297  49.127  53.333  0.00  0.00    -0.304 OA
BRANCH  12  13
ATOM     13  C   UNL d   1      57.088  49.320  54.107  0.00  0.00     0.100 A 
ATOM     14  C   UNL d   1      57.636  49.483  54.701  0.00  0.00     0.025 A 
ATOM     15  C   UNL d   1      57.428  49.675  55.474  0.00  0.00     0.002 A 
ATOM     16  C   UNL d   1      56.618  49.707  55.667  0.00  0.00     0.000 A 
ATOM     17  C   UNL d   1      56.041  49.545  55.082  0.00  0.00     0.002 A 
ATOM     18  C   UNL d   1      56.279  49.351  54.300  0.00  0.00     0.025 A 
ENDBRANCH  12  13
ENDBRANCH  11  12
ENDBRANCH  10  11
ENDBRANCH   2  10
BRANCH   3  19
ATOM     19  C   UNL d   1      59.282  49.354  51.976  0.00  0.00     0.037 C 
BRANCH  19  20
ATOM     20  C   UNL d   1      60.088  49.138  52.039  0.00  0.00     0.003 C 
ATOM     21  C   UNL d   1      60.550  49.405  52.681  0.00  0.00     0.000 C 
ENDBRANCH  19  20
ENDBRANCH   3  19
TORSDOF 6
ENDMDL
