MODEL 1
REMARK VINA RESULT:      37.5      0.000      0.000
REMARK  5 active torsions:
REMARK  status: ('A' for Active; 'I' for Inactive)
REMARK    1  A    between atoms: C_8  and  C_1 
REMARK    2  A    between atoms: N_4  and  C_2 
REMARK       I    between atoms: C_6  and  N_4 
REMARK    3  A    between atoms: C_11  and  C_6 
REMARK    4  A    between atoms: O_12  and  C_8 
REMARK    5  A    between atoms: C_17  and  O_12 
ROOT
ATOM      1  C   UNL d   1     -58.978 -98.909 -44.370  0.00  0.00     0.181 A 
ATOM      2  C   UNL d   1     -58.355 -98.825 -43.826  0.00  0.00     0.115 A 
ATOM      3  O   UNL d   1     -59.679 -98.958 -43.929  0.00  0.00    -0.300 OA
ATOM      4  C   UNL d   1     -58.673 -98.823 -43.072  0.00  0.00     0.043 A 
ATOM      5  C   UNL d   1     -59.494 -98.905 -43.133  0.00  0.00     0.102 A 
ATOM      6  C   UNL d   1     -58.322 -98.756 -42.329  0.00  0.00     0.004 A 
ATOM      7  C   UNL d   1     -59.955 -98.920 -42.457  0.00  0.00     0.025 A 
ATOM      8  C   UNL d   1     -58.791 -98.771 -41.646  0.00  0.00     0.000 A 
ATOM      9  C   UNL d   1     -59.611 -98.854 -41.716  0.00  0.00     0.002 A 
ENDROOT
BRANCH   2  10
ATOM     10  N   UNL d   1     -57.549 -98.755 -44.020  0.00  0.00    -0.206 NA
ATOM     11  C   UNL d   1     -57.118 -99.427 -44.221  0.00  0.00     0.279 C 
ATOM     12  O   UNL d   1     -57.480-100.167 -44.232  0.00  0.00    -0.265 OA
BRANCH  11  13
ATOM     13  C   UNL d   1     -56.322 -99.357 -44.413  0.00  0.00     0.058 A 
ATOM     14  C   UNL d   1     -55.809 -98.918 -43.920  0.00  0.00     0.005 A 
ATOM     15  C   UNL d   1     -55.022 -98.851 -44.113  0.00  0.00     0.000 A 
ATOM     16  C   UNL d   1     -54.732 -99.216 -44.793  0.00  0.00     0.000 A 
ATOM     17  C   UNL d   1     -55.235 -99.645 -45.275  0.00  0.00     0.000 A 
ATOM     18  C   UNL d   1     -56.040 -99.715 -45.080  0.00  0.00     0.005 A 
ENDBRANCH  11  13
ENDBRANCH   2  10
BRANCH   1  19
ATOM     19  C   UNL d   1     -58.910 -98.939 -45.192  0.00  0.00     0.325 C 
ATOM     20  O   UNL d   1     -58.170 -98.833 -45.549  0.00  0.00    -0.257 OA
BRANCH  19  21
ATOM     21  O   UNL d   1     -59.575 -99.073 -45.650  0.00  0.00    -0.269 OA
BRANCH  21  22
ATOM     22  C   UNL d   1     -59.603 -98.792 -46.432  0.00  0.00     0.126 C 
ATOM     23  C   UNL d   1     -59.624 -99.334 -47.061  0.00  0.00     0.029 C 
ENDBRANCH  21  22
ENDBRANCH  19  21
ENDBRANCH   1  19
TORSDOF 5
ENDMDL
