MODEL 1
REMARK VINA RESULT:      32.2      0.000      0.000
REMARK  3 active torsions:
REMARK  status: ('A' for Active; 'I' for Inactive)
REMARK    1  A    between atoms: C_5  and  C_4 
REMARK    2  A    between atoms: C_6  and  C_5 
REMARK       I    between atoms: N_9  and  C_6 
REMARK    3  A    between atoms: C_12  and  N_9 
ROOT
ATOM      1  N   UNL d   1     -54.748-100.275 -45.021  0.00  0.00    -0.205 NA
ATOM      2  C   UNL d   1     -55.118 -99.559 -44.841  0.00  0.00     0.297 A 
ATOM      3  N   UNL d   1     -56.142-100.238 -44.091  0.00  0.00    -0.239 NA
ATOM      4  C   UNL d   1     -55.803 -99.541 -44.384  0.00  0.00     0.144 A 
ATOM      5  C   UNL d   1     -55.082-100.977 -44.731  0.00  0.00     0.102 A 
ATOM      6  C   UNL d   1     -55.767-100.959 -44.273  0.00  0.00     0.099 A 
ATOM      7  O   UNL d   1     -54.784 -98.862 -45.131  0.00  0.00    -0.264 OA
ATOM      8  C   UNL d   1     -54.712-101.704 -44.909  0.00  0.00     0.021 A 
ATOM      9  C   UNL d   1     -56.106-101.667 -43.979  0.00  0.00     0.021 A 
ATOM     10  C   UNL d   1     -55.045-102.402 -44.619  0.00  0.00     0.002 A 
ATOM     11  C   UNL d   1     -55.731-102.383 -44.162  0.00  0.00     0.002 A 
ENDROOT
BRANCH   4  12
ATOM     12  C   UNL d   1     -56.178 -98.825 -44.202  0.00  0.00     0.086 C 
BRANCH  12  13
ATOM     13  C   UNL d   1     -56.999 -98.811 -44.103  0.00  0.00     0.281 C 
ATOM     14  N   UNL d   1     -57.466 -98.827 -44.756  0.00  0.00    -0.208 NA
ATOM     15  O   UNL d   1     -57.332 -98.781 -43.362  0.00  0.00    -0.265 OA
BRANCH  14  16
ATOM     16  C   UNL d   1     -58.303 -98.813 -44.678  0.00  0.00     0.085 A 
ATOM     17  C   UNL d   1     -58.776 -98.781 -45.327  0.00  0.00     0.019 A 
ATOM     18  C   UNL d   1     -59.602 -98.767 -45.244  0.00  0.00     0.002 A 
ATOM     19  C   UNL d   1     -59.916 -98.788 -44.493  0.00  0.00     0.000 A 
ATOM     20  C   UNL d   1     -59.450 -98.821 -43.840  0.00  0.00     0.002 A 
ATOM     21  C   UNL d   1     -58.644 -98.833 -43.933  0.00  0.00     0.019 A 
ENDBRANCH  14  16
ENDBRANCH  12  13
ENDBRANCH   4  12
TORSDOF 3
ENDMDL
MODEL 2
REMARK VINA RESULT:      32.5      0.937      3.980
REMARK  3 active torsions:
REMARK  status: ('A' for Active; 'I' for Inactive)
REMARK    1  A    between atoms: C_5  and  C_4 
REMARK    2  A    between atoms: C_6  and  C_5 
REMARK       I    between atoms: N_9  and  C_6 
REMARK    3  A    between atoms: C_12  and  N_9 
ROOT
ATOM      1  N   UNL d   1     -58.198 -98.773 -45.107  0.00  0.00    -0.205 NA
ATOM      2  C   UNL d   1     -57.379 -98.765 -45.211  0.00  0.00     0.297 A 
ATOM      3  N   UNL d   1     -57.164 -98.770 -43.788  0.00  0.00    -0.239 NA
ATOM      4  C   UNL d   1     -56.871 -98.764 -44.563  0.00  0.00     0.144 A 
ATOM      5  C   UNL d   1     -58.499 -98.780 -44.333  0.00  0.00     0.102 A 
ATOM      6  C   UNL d   1     -57.990 -98.778 -43.685  0.00  0.00     0.099 A 
ATOM      7  O   UNL d   1     -57.082 -98.759 -45.982  0.00  0.00    -0.264 OA
ATOM      8  C   UNL d   1     -59.326 -98.788 -44.222  0.00  0.00     0.021 A 
ATOM      9  C   UNL d   1     -58.292 -98.785 -42.903  0.00  0.00     0.021 A 
ATOM     10  C   UNL d   1     -59.623 -98.795 -43.452  0.00  0.00     0.002 A 
ATOM     11  C   UNL d   1     -59.115 -98.793 -42.803  0.00  0.00     0.002 A 
ENDROOT
BRANCH   4  12
ATOM     12  C   UNL d   1     -56.048 -98.756 -44.663  0.00  0.00     0.086 C 
BRANCH  12  13
ATOM     13  C   UNL d   1     -55.607 -99.420 -44.444  0.00  0.00     0.281 C 
ATOM     14  N   UNL d   1     -55.977-100.130 -44.395  0.00  0.00    -0.208 NA
ATOM     15  O   UNL d   1     -54.812 -99.360 -44.282  0.00  0.00    -0.265 OA
BRANCH  14  16
ATOM     16  C   UNL d   1     -55.546-100.817 -44.174  0.00  0.00     0.085 A 
ATOM     17  C   UNL d   1     -55.249-100.895 -43.432  0.00  0.00     0.019 A 
ATOM     18  C   UNL d   1     -54.824-101.576 -43.218  0.00  0.00     0.002 A 
ATOM     19  C   UNL d   1     -54.718-102.157 -43.779  0.00  0.00     0.000 A 
ATOM     20  C   UNL d   1     -55.011-102.086 -44.522  0.00  0.00     0.002 A 
ATOM     21  C   UNL d   1     -55.426-101.417 -44.720  0.00  0.00     0.019 A 
ENDBRANCH  14  16
ENDBRANCH  12  13
ENDBRANCH   4  12
TORSDOF 3
ENDMDL
MODEL 3
REMARK VINA RESULT:      34.9      4.575      5.953
REMARK  3 active torsions:
REMARK  status: ('A' for Active; 'I' for Inactive)
REMARK    1  A    between atoms: C_5  and  C_4 
REMARK    2  A    between atoms: C_6  and  C_5 
REMARK       I    between atoms: N_9  and  C_6 
REMARK    3  A    between atoms: C_12  and  N_9 
ROOT
ATOM      1  N   UNL d   1     -56.497-102.863 -39.315  0.00  0.00    -0.205 NA
ATOM      2  C   UNL d   1     -56.018-102.871 -39.987  0.00  0.00     0.297 A 
ATOM      3  N   UNL d   1     -54.826-102.863 -39.179  0.00  0.00    -0.239 NA
ATOM      4  C   UNL d   1     -55.196-102.870 -39.920  0.00  0.00     0.144 A 
ATOM      5  C   UNL d   1     -56.133-102.855 -38.569  0.00  0.00     0.102 A 
ATOM      6  C   UNL d   1     -55.312-102.855 -38.502  0.00  0.00     0.099 A 
ATOM      7  O   UNL d   1     -56.382-102.879 -40.728  0.00  0.00    -0.264 OA
ATOM      8  C   UNL d   1     -56.613-102.847 -37.886  0.00  0.00     0.021 A 
ATOM      9  C   UNL d   1     -54.943-102.847 -37.750  0.00  0.00     0.021 A 
ATOM     10  C   UNL d   1     -56.249-102.839 -37.145  0.00  0.00     0.002 A 
ATOM     11  C   UNL d   1     -55.428-102.839 -37.078  0.00  0.00     0.002 A 
ENDROOT
BRANCH   4  12
ATOM     12  C   UNL d   1     -54.711-102.878 -40.592  0.00  0.00     0.086 C 
BRANCH  12  13
ATOM     13  C   UNL d   1     -54.712-102.225 -41.100  0.00  0.00     0.281 C 
ATOM     14  N   UNL d   1     -54.713-102.353 -41.892  0.00  0.00    -0.208 NA
ATOM     15  O   UNL d   1     -54.711-101.467 -40.807  0.00  0.00    -0.265 OA
BRANCH  14  16
ATOM     16  C   UNL d   1     -54.714-101.703 -42.425  0.00  0.00     0.085 A 
ATOM     17  C   UNL d   1     -54.718-100.948 -42.151  0.00  0.00     0.019 A 
ATOM     18  C   UNL d   1     -54.718-100.309 -42.682  0.00  0.00     0.002 A 
ATOM     19  C   UNL d   1     -54.715-100.468 -43.480  0.00  0.00     0.000 A 
ATOM     20  C   UNL d   1     -54.712-101.220 -43.761  0.00  0.00     0.002 A 
ATOM     21  C   UNL d   1     -54.711-101.838 -43.234  0.00  0.00     0.019 A 
ENDBRANCH  14  16
ENDBRANCH  12  13
ENDBRANCH   4  12
TORSDOF 3
ENDMDL
