MODEL 1
REMARK VINA RESULT:     183.1      0.000      0.000
REMARK  4 active torsions:
REMARK  status: ('A' for Active; 'I' for Inactive)
REMARK    1  A    between atoms: N_10  and  C_3 
REMARK    2  A    between atoms: C_14  and  C_5 
REMARK    3  A    between atoms: C_15  and  C_9 
REMARK       I    between atoms: C_11  and  N_12 
REMARK    4  A    between atoms: C_13  and  C_11 
ROOT
ATOM      1  N   UNL d   1      61.466  45.010  50.647  0.00  0.00    -0.196 N 
ATOM      2  C   UNL d   1      61.724  44.201  50.736  0.00  0.00     0.167 A 
ATOM      3  C   UNL d   1      61.052  45.357  51.261  0.00  0.00     0.152 A 
ATOM      4  N   UNL d   1      62.061  45.042  49.344  0.00  0.00    -0.163 NA
ATOM      5  C   UNL d   1      62.142  43.827  50.133  0.00  0.00     0.055 A 
ATOM      6  N   UNL d   1      61.553  43.783  51.434  0.00  0.00    -0.231 NA
ATOM      7  C   UNL d   1      60.879  44.953  51.953  0.00  0.00     0.052 A 
ATOM      8  C   UNL d   1      62.314  44.249  49.431  0.00  0.00     0.104 A 
ATOM      9  C   UNL d   1      61.133  44.156  52.040  0.00  0.00     0.063 A 
ATOM     10  C   UNL d   1      62.729  43.881  48.831  0.00  0.00     0.023 C 
ENDROOT
BRANCH   3  11
ATOM     11  N   UNL d   1      60.789  46.180  51.175  0.00  0.00    -0.286 N 
ATOM     12  C   UNL d   1      60.173  46.541  50.773  0.00  0.00     0.101 A 
ATOM     13  C   UNL d   1      60.072  47.357  50.803  0.00  0.00     0.102 A 
ATOM     14  N   UNL d   1      60.597  47.812  51.242  0.00  0.00    -0.267 N 
ATOM     15  C   UNL d   1      60.508  48.624  51.281  0.00  0.00     0.288 C 
ATOM     16  C   UNL d   1      61.212  47.456  51.643  0.00  0.00     0.102 A 
ATOM     17  O   UNL d   1      61.032  49.083  51.720  0.00  0.00    -0.264 OA
ATOM     18  C   UNL d   1      61.306  46.637  51.608  0.00  0.00     0.101 A 
BRANCH  15  19
ATOM     19  C   UNL d   1      59.893  48.984  50.880  0.00  0.00     0.156 A 
ATOM     20  O   UNL d   1      59.177  49.116  51.266  0.00  0.00    -0.300 OA
ATOM     21  C   UNL d   1      58.561  49.476  50.863  0.00  0.00     0.123 A 
ATOM     22  C   UNL d   1      58.651  49.703  50.091  0.00  0.00     0.029 A 
ATOM     23  C   UNL d   1      59.982  49.211  50.107  0.00  0.00     0.032 A 
ENDBRANCH  15  19
ENDBRANCH   3  11
BRANCH   9  24
ATOM     24  C   UNL d   1      60.951  43.721  52.776  0.00  0.00     0.036 C 
ATOM     25  C   UNL d   1      60.771  43.292  53.507  0.00  0.00     0.006 C 
ATOM     26  C   UNL d   1      60.689  42.892  52.741  0.00  0.00     0.006 C 
ATOM     27  C   UNL d   1      61.032  44.118  53.543  0.00  0.00     0.006 C 
ENDBRANCH   9  24
BRANCH   5  28
ATOM     28  C   UNL d   1      62.392  43.043  50.219  0.00  0.00     0.004 A 
ATOM     29  C   UNL d   1      62.899  42.836  50.830  0.00  0.00     0.001 A 
ATOM     30  C   UNL d   1      63.151  42.042  50.917  0.00  0.00     0.011 A 
ATOM     31  C   UNL d   1      62.892  41.467  50.391  0.00  0.00     0.058 A 
ATOM     32  C   UNL d   1      62.374  41.684  49.768  0.00  0.00     0.011 A 
ATOM     33 CL   UNL d   1      63.154  40.644  50.482  0.00  0.00    -0.082 Cl
ATOM     34  C   UNL d   1      62.126  42.465  49.682  0.00  0.00     0.001 A 
ENDBRANCH   5  28
TORSDOF 4
ENDMDL
