MODEL 1
REMARK VINA RESULT:       1.9      0.000      0.000
REMARK  10 active torsions:
REMARK  status: ('A' for Active; 'I' for Inactive)
REMARK    1  A    between atoms: C_3  and  C_1 
REMARK    2  A    between atoms: C_4  and  C_1 
REMARK    3  A    between atoms: N_2  and  C_8 
REMARK    4  A    between atoms: O_19  and  C_3 
REMARK    5  A    between atoms: C_14  and  C_4 
REMARK    6  A    between atoms: C_20  and  N_7 
REMARK    7  A    between atoms: C_9  and  C_20 
REMARK    8  A    between atoms: C_13  and  C_9 
REMARK    9  A    between atoms: C_23  and  C_13 
REMARK   10  A    between atoms: C_24  and  O_19 
ROOT
ATOM      1  C   UNL d   1      59.139  -2.327  29.008  0.00  0.00     0.132 C 
ATOM      2  C   UNL d   1      59.928  -2.309  29.254  0.00  0.00     0.106 C 
ATOM      3  N   UNL d   1      60.717  -2.294  29.501  0.00  0.00    -0.191 NA
ENDROOT
BRANCH   1   4
ATOM      4  C   UNL d   1      58.776  -3.031  28.816  0.00  0.00     0.310 C 
ATOM      5  O   UNL d   1      57.992  -3.154  28.971  0.00  0.00    -0.258 OA
BRANCH   4   6
ATOM      6  O   UNL d   1      59.215  -3.625  28.460  0.00  0.00    -0.271 OA
BRANCH   6   7
ATOM      7  C   UNL d   1      58.928  -4.400  28.455  0.00  0.00     0.126 C 
ATOM      8  C   UNL d   1      59.418  -5.013  28.731  0.00  0.00     0.029 C 
ENDBRANCH   6   7
ENDBRANCH   4   6
ENDBRANCH   1   4
BRANCH   1   9
ATOM      9  C   UNL d   1      58.713  -1.628  28.955  0.00  0.00     0.016 C 
BRANCH   9  10
ATOM     10  C   UNL d   1      58.381  -1.297  29.658  0.00  0.00     0.001 A 
ATOM     11  C   UNL d   1      58.292  -1.756  30.359  0.00  0.00     0.002 A 
ATOM     12  C   UNL d   1      57.970  -1.418  31.024  0.00  0.00     0.018 A 
ATOM     13  C   UNL d   1      57.726  -0.639  31.035  0.00  0.00     0.064 A 
ATOM     14  C   UNL d   1      57.809  -0.188  30.361  0.00  0.00     0.018 A 
ATOM     15  C   UNL d   1      58.136  -0.516  29.672  0.00  0.00     0.002 A 
BRANCH  13  16
ATOM     16  N   UNL d   1      57.399  -0.310  31.724  0.00  0.00    -0.301 N 
ATOM     17  C   UNL d   1      56.703  -0.604  32.037  0.00  0.00     0.100 A 
ATOM     18  C   UNL d   1      56.376  -0.276  32.726  0.00  0.00     0.100 A 
ATOM     19  N   UNL d   1      56.745   0.347  33.102  0.00  0.00    -0.300 N 
ATOM     20  C   UNL d   1      57.467   0.661  32.787  0.00  0.00     0.100 A 
ATOM     21  C   UNL d   1      57.779   0.323  32.101  0.00  0.00     0.100 A 
BRANCH  19  22
ATOM     22  C   UNL d   1      56.418   0.676  33.791  0.00  0.00     0.080 C 
BRANCH  22  23
ATOM     23  C   UNL d   1      55.641   0.474  34.026  0.00  0.00     0.019 C 
BRANCH  23  24
ATOM     24  C   UNL d   1      55.274   0.576  34.690  0.00  0.00     0.002 C 
BRANCH  24  25
ATOM     25  C   UNL d   1      54.460   0.611  34.695  0.00  0.00     0.000 A 
ATOM     26  C   UNL d   1      54.073   0.638  35.408  0.00  0.00     0.000 A 
ATOM     27  C   UNL d   1      53.249   0.674  35.430  0.00  0.00     0.000 A 
ATOM     28  C   UNL d   1      52.818   0.681  34.735  0.00  0.00     0.000 A 
ATOM     29  C   UNL d   1      53.222   0.653  34.009  0.00  0.00     0.000 A 
ATOM     30  C   UNL d   1      54.047   0.618  33.994  0.00  0.00     0.000 A 
ENDBRANCH  24  25
ENDBRANCH  23  24
ENDBRANCH  22  23
ENDBRANCH  19  22
ENDBRANCH  13  16
ENDBRANCH   9  10
ENDBRANCH   1   9
TORSDOF 10
ENDMDL
MODEL 2
REMARK VINA RESULT:       1.9      1.627      2.132
REMARK  10 active torsions:
REMARK  status: ('A' for Active; 'I' for Inactive)
REMARK    1  A    between atoms: C_3  and  C_1 
REMARK    2  A    between atoms: C_4  and  C_1 
REMARK    3  A    between atoms: N_2  and  C_8 
REMARK    4  A    between atoms: O_19  and  C_3 
REMARK    5  A    between atoms: C_14  and  C_4 
REMARK    6  A    between atoms: C_20  and  N_7 
REMARK    7  A    between atoms: C_9  and  C_20 
REMARK    8  A    between atoms: C_13  and  C_9 
REMARK    9  A    between atoms: C_23  and  C_13 
REMARK   10  A    between atoms: C_24  and  O_19 
ROOT
ATOM      1  C   UNL d   1      58.868  -0.155  29.311  0.00  0.00     0.132 C 
ATOM      2  C   UNL d   1      58.238  -0.678  29.198  0.00  0.00     0.106 C 
ATOM      3  N   UNL d   1      57.609  -1.203  29.083  0.00  0.00    -0.191 NA
ENDROOT
BRANCH   1   4
ATOM      4  C   UNL d   1      59.590  -0.285  28.954  0.00  0.00     0.310 C 
ATOM      5  O   UNL d   1      59.979   0.310  28.569  0.00  0.00    -0.258 OA
BRANCH   4   6
ATOM      6  O   UNL d   1      59.925  -1.032  28.986  0.00  0.00    -0.271 OA
BRANCH   6   7
ATOM      7  C   UNL d   1      60.569  -1.214  28.500  0.00  0.00     0.126 C 
ATOM      8  C   UNL d   1      61.126  -1.772  28.761  0.00  0.00     0.029 C 
ENDBRANCH   6   7
ENDBRANCH   4   6
ENDBRANCH   1   4
BRANCH   1   9
ATOM      9  C   UNL d   1      58.770   0.504  29.789  0.00  0.00     0.016 C 
BRANCH   9  10
ATOM     10  C   UNL d   1      58.267   0.447  30.466  0.00  0.00     0.001 A 
ATOM     11  C   UNL d   1      57.434   0.560  30.403  0.00  0.00     0.002 A 
ATOM     12  C   UNL d   1      56.969   0.501  31.067  0.00  0.00     0.018 A 
ATOM     13  C   UNL d   1      57.286   0.335  31.801  0.00  0.00     0.064 A 
ATOM     14  C   UNL d   1      58.091   0.226  31.870  0.00  0.00     0.018 A 
ATOM     15  C   UNL d   1      58.581   0.282  31.203  0.00  0.00     0.002 A 
BRANCH  13  16
ATOM     16  N   UNL d   1      56.794   0.280  32.469  0.00  0.00    -0.301 N 
ATOM     17  C   UNL d   1      56.002   0.095  32.389  0.00  0.00     0.100 A 
ATOM     18  C   UNL d   1      55.511   0.039  33.056  0.00  0.00     0.100 A 
ATOM     19  N   UNL d   1      55.812   0.168  33.803  0.00  0.00    -0.300 N 
ATOM     20  C   UNL d   1      56.633   0.360  33.898  0.00  0.00     0.100 A 
ATOM     21  C   UNL d   1      57.108   0.412  33.225  0.00  0.00     0.100 A 
BRANCH  19  22
ATOM     22  C   UNL d   1      55.320   0.112  34.470  0.00  0.00     0.080 C 
BRANCH  22  23
ATOM     23  C   UNL d   1      54.540   0.409  34.445  0.00  0.00     0.019 C 
BRANCH  23  24
ATOM     24  C   UNL d   1      54.086   0.681  34.997  0.00  0.00     0.002 C 
BRANCH  24  25
ATOM     25  C   UNL d   1      53.278   0.677  34.891  0.00  0.00     0.000 A 
ATOM     26  C   UNL d   1      52.981   0.679  34.137  0.00  0.00     0.000 A 
ATOM     27  C   UNL d   1      52.165   0.674  34.013  0.00  0.00     0.000 A 
ATOM     28  C   UNL d   1      51.653   0.668  34.650  0.00  0.00     0.000 A 
ATOM     29  C   UNL d   1      51.965   0.665  35.420  0.00  0.00     0.000 A 
ATOM     30  C   UNL d   1      52.783   0.670  35.536  0.00  0.00     0.000 A 
ENDBRANCH  24  25
ENDBRANCH  23  24
ENDBRANCH  22  23
ENDBRANCH  19  22
ENDBRANCH  13  16
ENDBRANCH   9  10
ENDBRANCH   1   9
TORSDOF 10
ENDMDL
