MODEL 1
REMARK VINA RESULT:      -8.4      0.000      0.000
REMARK  4 active torsions:
REMARK  status: ('A' for Active; 'I' for Inactive)
REMARK    1  A    between atoms: C_7  and  N_1 
REMARK    2  A    between atoms: C_8  and  C_7 
REMARK       I    between atoms: N_11  and  C_8 
REMARK    3  A    between atoms: C_13  and  N_11 
REMARK    4  A    between atoms: C_15  and  C_13 
ROOT
ATOM      1  C   UNL d   1      52.516  33.763  52.929  0.00  0.00     0.148 C 
ENDROOT
BRANCH   1   2
ATOM      2  N   UNL d   1      53.021  33.259  53.342  0.00  0.00    -0.235 N 
ATOM      3  C   UNL d   1      53.039  32.452  53.156  0.00  0.00     0.273 A 
ATOM      4  C   UNL d   1      53.540  31.952  53.565  0.00  0.00     0.086 A 
ATOM      5  O   UNL d   1      52.550  32.155  52.558  0.00  0.00    -0.266 OA
ATOM      6  C   UNL d   1      53.556  31.142  53.377  0.00  0.00     0.012 C 
ATOM      7  S   UNL d   1      54.028  32.236  54.158  0.00  0.00    -0.077 SA
ATOM      8  C   UNL d   1      54.013  33.035  54.345  0.00  0.00     0.086 A 
ATOM      9  C   UNL d   1      53.513  33.553  53.942  0.00  0.00     0.273 A 
ATOM     10  C   UNL d   1      54.501  33.329  54.941  0.00  0.00     0.012 C 
ATOM     11  O   UNL d   1      53.496  34.354  54.127  0.00  0.00    -0.266 OA
ENDBRANCH   1   2
BRANCH   1  12
ATOM     12  C   UNL d   1      51.743  33.873  53.191  0.00  0.00     0.297 C 
ATOM     13  N   UNL d   1      51.155  34.119  52.674  0.00  0.00    -0.205 NA
ATOM     14  O   UNL d   1      51.558  33.734  53.983  0.00  0.00    -0.264 OA
BRANCH  13  15
ATOM     15  C   UNL d   1      50.384  34.230  52.927  0.00  0.00     0.102 C 
BRANCH  15  16
ATOM     16  C   UNL d   1      49.793  34.473  52.404  0.00  0.00     0.019 A 
ATOM     17  C   UNL d   1      49.203  34.986  52.665  0.00  0.00     0.004 A 
ATOM     18  C   UNL d   1      48.608  35.232  52.143  0.00  0.00     0.030 A 
ATOM     19  C   UNL d   1      48.612  34.961  51.368  0.00  0.00     0.140 A 
ATOM     20  C   UNL d   1      49.202  34.448  51.106  0.00  0.00     0.030 A 
ATOM     21  F   UNL d   1      48.022  35.201  50.839  0.00  0.00    -0.204 F 
ATOM     22  C   UNL d   1      49.800  34.199  51.627  0.00  0.00     0.004 A 
ENDBRANCH  15  16
ENDBRANCH  13  15
ENDBRANCH   1  12
TORSDOF 4
ENDMDL
MODEL 2
REMARK VINA RESULT:      -8.3      0.018      1.361
REMARK  4 active torsions:
REMARK  status: ('A' for Active; 'I' for Inactive)
REMARK    1  A    between atoms: C_7  and  N_1 
REMARK    2  A    between atoms: C_8  and  C_7 
REMARK       I    between atoms: N_11  and  C_8 
REMARK    3  A    between atoms: C_13  and  N_11 
REMARK    4  A    between atoms: C_15  and  C_13 
ROOT
ATOM      1  C   UNL d   1      52.526  33.790  52.950  0.00  0.00     0.148 C 
ENDROOT
BRANCH   1   2
ATOM      2  N   UNL d   1      53.029  33.273  53.350  0.00  0.00    -0.235 N 
ATOM      3  C   UNL d   1      53.522  33.559  53.951  0.00  0.00     0.273 A 
ATOM      4  C   UNL d   1      54.020  33.047  54.346  0.00  0.00     0.086 A 
ATOM      5  O   UNL d   1      53.507  34.363  54.147  0.00  0.00    -0.266 OA
ATOM      6  C   UNL d   1      54.514  33.337  54.949  0.00  0.00     0.012 C 
ATOM      7  S   UNL d   1      54.041  32.250  54.158  0.00  0.00    -0.077 SA
ATOM      8  C   UNL d   1      53.555  31.962  53.564  0.00  0.00     0.086 A 
ATOM      9  C   UNL d   1      53.046  32.467  53.155  0.00  0.00     0.273 A 
ATOM     10  C   UNL d   1      53.570  31.161  53.368  0.00  0.00     0.012 C 
ATOM     11  O   UNL d   1      52.557  32.180  52.558  0.00  0.00    -0.266 OA
ENDBRANCH   1   2
BRANCH   1  12
ATOM     12  C   UNL d   1      51.749  33.885  53.206  0.00  0.00     0.297 C 
ATOM     13  N   UNL d   1      51.163  34.132  52.686  0.00  0.00    -0.205 NA
ATOM     14  O   UNL d   1      51.558  33.730  53.993  0.00  0.00    -0.264 OA
BRANCH  13  15
ATOM     15  C   UNL d   1      50.388  34.228  52.932  0.00  0.00     0.102 C 
BRANCH  15  16
ATOM     16  C   UNL d   1      49.799  34.471  52.407  0.00  0.00     0.019 A 
ATOM     17  C   UNL d   1      49.204  34.979  52.667  0.00  0.00     0.004 A 
ATOM     18  C   UNL d   1      48.612  35.225  52.142  0.00  0.00     0.030 A 
ATOM     19  C   UNL d   1      48.623  34.959  51.366  0.00  0.00     0.140 A 
ATOM     20  C   UNL d   1      49.218  34.450  51.105  0.00  0.00     0.030 A 
ATOM     21  F   UNL d   1      48.035  35.199  50.834  0.00  0.00    -0.204 F 
ATOM     22  C   UNL d   1      49.813  34.202  51.629  0.00  0.00     0.004 A 
ENDBRANCH  15  16
ENDBRANCH  13  15
ENDBRANCH   1  12
TORSDOF 4
ENDMDL
MODEL 3
REMARK VINA RESULT:      -7.8      3.296      4.693
REMARK  4 active torsions:
REMARK  status: ('A' for Active; 'I' for Inactive)
REMARK    1  A    between atoms: C_7  and  N_1 
REMARK    2  A    between atoms: C_8  and  C_7 
REMARK       I    between atoms: N_11  and  C_8 
REMARK    3  A    between atoms: C_13  and  N_11 
REMARK    4  A    between atoms: C_15  and  C_13 
ROOT
ATOM      1  C   UNL d   1      53.529  32.862  52.982  0.00  0.00     0.148 C 
ENDROOT
BRANCH   1   2
ATOM      2  N   UNL d   1      53.604  33.406  53.598  0.00  0.00    -0.235 N 
ATOM      3  C   UNL d   1      54.233  33.338  54.133  0.00  0.00     0.273 A 
ATOM      4  C   UNL d   1      54.307  33.877  54.742  0.00  0.00     0.086 A 
ATOM      5  O   UNL d   1      54.782  32.725  54.048  0.00  0.00    -0.266 OA
ATOM      6  C   UNL d   1      54.939  33.807  55.279  0.00  0.00     0.012 C 
ATOM      7  S   UNL d   1      53.768  34.487  54.834  0.00  0.00    -0.077 SA
ATOM      8  C   UNL d   1      53.144  34.558  54.306  0.00  0.00     0.086 A 
ATOM      9  C   UNL d   1      53.055  34.022  53.685  0.00  0.00     0.273 A 
ATOM     10  C   UNL d   1      52.598  35.169  54.392  0.00  0.00     0.012 C 
ATOM     11  O   UNL d   1      52.430  34.091  53.155  0.00  0.00    -0.266 OA
ENDBRANCH   1   2
BRANCH   1  12
ATOM     12  C   UNL d   1      53.006  32.231  53.056  0.00  0.00     0.297 C 
ATOM     13  N   UNL d   1      53.272  31.490  53.288  0.00  0.00    -0.205 NA
ATOM     14  O   UNL d   1      52.205  32.344  52.893  0.00  0.00    -0.264 OA
BRANCH  13  15
ATOM     15  C   UNL d   1      52.758  30.856  53.364  0.00  0.00     0.102 C 
BRANCH  15  16
ATOM     16  C   UNL d   1      52.985  30.166  53.756  0.00  0.00     0.019 A 
ATOM     17  C   UNL d   1      52.761  30.051  54.541  0.00  0.00     0.004 A 
ATOM     18  C   UNL d   1      52.986  29.360  54.938  0.00  0.00     0.030 A 
ATOM     19  C   UNL d   1      53.432  28.794  54.544  0.00  0.00     0.140 A 
ATOM     20  C   UNL d   1      53.656  28.908  53.759  0.00  0.00     0.030 A 
ATOM     21  F   UNL d   1      53.662  28.099  54.933  0.00  0.00    -0.204 F 
ATOM     22  C   UNL d   1      53.432  29.600  53.358  0.00  0.00     0.004 A 
ENDBRANCH  15  16
ENDBRANCH  13  15
ENDBRANCH   1  12
TORSDOF 4
ENDMDL
MODEL 4
REMARK VINA RESULT:      -5.8     10.683     11.310
REMARK  4 active torsions:
REMARK  status: ('A' for Active; 'I' for Inactive)
REMARK    1  A    between atoms: C_7  and  N_1 
REMARK    2  A    between atoms: C_8  and  C_7 
REMARK       I    between atoms: N_11  and  C_8 
REMARK    3  A    between atoms: C_13  and  N_11 
REMARK    4  A    between atoms: C_15  and  C_13 
ROOT
ATOM      1  C   UNL d   1      45.565  26.932  57.040  0.00  0.00     0.148 C 
ENDROOT
BRANCH   1   2
ATOM      2  N   UNL d   1      45.312  27.458  57.623  0.00  0.00    -0.235 N 
ATOM      3  C   UNL d   1      45.141  27.178  58.384  0.00  0.00     0.273 A 
ATOM      4  C   UNL d   1      44.890  27.699  58.961  0.00  0.00     0.086 A 
ATOM      5  O   UNL d   1      45.224  26.373  58.555  0.00  0.00    -0.266 OA
ATOM      6  C   UNL d   1      44.719  27.416  59.724  0.00  0.00     0.012 C 
ATOM      7  S   UNL d   1      44.805  28.497  58.800  0.00  0.00    -0.077 SA
ATOM      8  C   UNL d   1      44.973  28.779  58.049  0.00  0.00     0.086 A 
ATOM      9  C   UNL d   1      45.227  28.266  57.454  0.00  0.00     0.273 A 
ATOM     10  C   UNL d   1      44.889  29.582  57.879  0.00  0.00     0.012 C 
ATOM     11  O   UNL d   1      45.397  28.546  56.699  0.00  0.00    -0.266 OA
ENDBRANCH   1   2
BRANCH   1  12
ATOM     12  C   UNL d   1      45.012  26.549  56.566  0.00  0.00     0.297 C 
ATOM     13  N   UNL d   1      45.147  25.784  56.299  0.00  0.00    -0.205 NA
ATOM     14  O   UNL d   1      44.315  26.938  56.358  0.00  0.00    -0.264 OA
BRANCH  13  15
ATOM     15  C   UNL d   1      44.601  25.396  55.827  0.00  0.00     0.102 C 
BRANCH  15  16
ATOM     16  C   UNL d   1      44.750  24.637  55.538  0.00  0.00     0.019 A 
ATOM     17  C   UNL d   1      44.950  24.033  56.063  0.00  0.00     0.004 A 
ATOM     18  C   UNL d   1      45.100  23.270  55.777  0.00  0.00     0.030 A 
ATOM     19  C   UNL d   1      45.047  23.122  54.972  0.00  0.00     0.140 A 
ATOM     20  C   UNL d   1      44.846  23.725  54.446  0.00  0.00     0.030 A 
ATOM     21  F   UNL d   1      45.195  22.362  54.677  0.00  0.00    -0.204 F 
ATOM     22  C   UNL d   1      44.696  24.491  54.730  0.00  0.00     0.004 A 
ENDBRANCH  15  16
ENDBRANCH  13  15
ENDBRANCH   1  12
TORSDOF 4
ENDMDL
MODEL 5
REMARK VINA RESULT:      -5.8      9.728     10.249
REMARK  4 active torsions:
REMARK  status: ('A' for Active; 'I' for Inactive)
REMARK    1  A    between atoms: C_7  and  N_1 
REMARK    2  A    between atoms: C_8  and  C_7 
REMARK       I    between atoms: N_11  and  C_8 
REMARK    3  A    between atoms: C_13  and  N_11 
REMARK    4  A    between atoms: C_15  and  C_13 
ROOT
ATOM      1  C   UNL d   1      45.448  27.633  58.124  0.00  0.00     0.148 C 
ENDROOT
BRANCH   1   2
ATOM      2  N   UNL d   1      45.159  26.895  57.894  0.00  0.00    -0.235 N 
ATOM      3  C   UNL d   1      44.960  26.334  58.470  0.00  0.00     0.273 A 
ATOM      4  C   UNL d   1      44.674  25.603  58.242  0.00  0.00     0.086 A 
ATOM      5  O   UNL d   1      45.050  26.515  59.272  0.00  0.00    -0.266 OA
ATOM      6  C   UNL d   1      44.474  25.041  58.822  0.00  0.00     0.012 C 
ATOM      7  S   UNL d   1      44.581  25.415  57.451  0.00  0.00    -0.077 SA
ATOM      8  C   UNL d   1      44.777  25.968  56.878  0.00  0.00     0.086 A 
ATOM      9  C   UNL d   1      45.067  26.710  57.091  0.00  0.00     0.273 A 
ATOM     10  C   UNL d   1      44.686  25.786  56.079  0.00  0.00     0.012 C 
ATOM     11  O   UNL d   1      45.264  27.267  56.519  0.00  0.00    -0.266 OA
ENDBRANCH   1   2
BRANCH   1  12
ATOM     12  C   UNL d   1      44.922  28.245  58.289  0.00  0.00     0.297 C 
ATOM     13  N   UNL d   1      44.997  28.974  57.918  0.00  0.00    -0.205 NA
ATOM     14  O   UNL d   1      44.314  28.124  58.833  0.00  0.00    -0.264 OA
BRANCH  13  15
ATOM     15  C   UNL d   1      44.478  29.588  58.077  0.00  0.00     0.102 C 
BRANCH  15  16
ATOM     16  C   UNL d   1      44.544  30.314  57.690  0.00  0.00     0.019 A 
ATOM     17  C   UNL d   1      44.818  30.974  58.103  0.00  0.00     0.004 A 
ATOM     18  C   UNL d   1      44.885  31.704  57.718  0.00  0.00     0.030 A 
ATOM     19  C   UNL d   1      44.678  31.764  56.926  0.00  0.00     0.140 A 
ATOM     20  C   UNL d   1      44.405  31.105  56.512  0.00  0.00     0.030 A 
ATOM     21  F   UNL d   1      44.742  32.490  56.532  0.00  0.00    -0.204 F 
ATOM     22  C   UNL d   1      44.336  30.372  56.896  0.00  0.00     0.004 A 
ENDBRANCH  15  16
ENDBRANCH  13  15
ENDBRANCH   1  12
TORSDOF 4
ENDMDL
MODEL 6
REMARK VINA RESULT:      -5.8     10.205     10.995
REMARK  4 active torsions:
REMARK  status: ('A' for Active; 'I' for Inactive)
REMARK    1  A    between atoms: C_7  and  N_1 
REMARK    2  A    between atoms: C_8  and  C_7 
REMARK       I    between atoms: N_11  and  C_8 
REMARK    3  A    between atoms: C_13  and  N_11 
REMARK    4  A    between atoms: C_15  and  C_13 
ROOT
ATOM      1  C   UNL d   1      45.387  30.341  58.918  0.00  0.00     0.148 C 
ENDROOT
BRANCH   1   2
ATOM      2  N   UNL d   1      45.098  30.000  58.225  0.00  0.00    -0.235 N 
ATOM      3  C   UNL d   1      44.990  29.180  58.183  0.00  0.00     0.273 A 
ATOM      4  C   UNL d   1      44.703  28.843  57.496  0.00  0.00     0.086 A 
ATOM      5  O   UNL d   1      45.174  28.706  58.836  0.00  0.00    -0.266 OA
ATOM      6  C   UNL d   1      44.596  28.019  57.456  0.00  0.00     0.012 C 
ATOM      7  S   UNL d   1      44.519  29.304  56.845  0.00  0.00    -0.077 SA
ATOM      8  C   UNL d   1      44.624  30.117  56.883  0.00  0.00     0.086 A 
ATOM      9  C   UNL d   1      44.913  30.473  57.569  0.00  0.00     0.273 A 
ATOM     10  C   UNL d   1      44.440  30.588  56.231  0.00  0.00     0.012 C 
ATOM     11  O   UNL d   1      45.019  31.288  57.609  0.00  0.00    -0.266 OA
ENDBRANCH   1   2
BRANCH   1  12
ATOM     12  C   UNL d   1      44.865  30.679  59.458  0.00  0.00     0.297 C 
ATOM     13  N   UNL d   1      44.888  30.468  60.251  0.00  0.00    -0.205 NA
ATOM     14  O   UNL d   1      44.314  31.234  59.198  0.00  0.00    -0.264 OA
BRANCH  13  15
ATOM     15  C   UNL d   1      44.372  30.800  60.795  0.00  0.00     0.102 C 
BRANCH  15  16
ATOM     16  C   UNL d   1      44.383  30.573  61.588  0.00  0.00     0.019 A 
ATOM     17  C   UNL d   1      44.381  31.150  62.178  0.00  0.00     0.004 A 
ATOM     18  C   UNL d   1      44.392  30.927  62.975  0.00  0.00     0.030 A 
ATOM     19  C   UNL d   1      44.405  30.130  63.172  0.00  0.00     0.140 A 
ATOM     20  C   UNL d   1      44.407  29.552  62.584  0.00  0.00     0.030 A 
ATOM     21  F   UNL d   1      44.416  29.897  63.967  0.00  0.00    -0.204 F 
ATOM     22  C   UNL d   1      44.396  29.773  61.783  0.00  0.00     0.004 A 
ENDBRANCH  15  16
ENDBRANCH  13  15
ENDBRANCH   1  12
TORSDOF 4
ENDMDL
MODEL 7
REMARK VINA RESULT:      -5.6     10.651     11.170
REMARK  4 active torsions:
REMARK  status: ('A' for Active; 'I' for Inactive)
REMARK    1  A    between atoms: C_7  and  N_1 
REMARK    2  A    between atoms: C_8  and  C_7 
REMARK       I    between atoms: N_11  and  C_8 
REMARK    3  A    between atoms: C_13  and  N_11 
REMARK    4  A    between atoms: C_15  and  C_13 
ROOT
ATOM      1  C   UNL d   1      45.429  27.559  58.246  0.00  0.00     0.148 C 
ENDROOT
BRANCH   1   2
ATOM      2  N   UNL d   1      45.141  26.833  57.981  0.00  0.00    -0.235 N 
ATOM      3  C   UNL d   1      45.114  26.673  57.168  0.00  0.00     0.273 A 
ATOM      4  C   UNL d   1      44.830  25.954  56.905  0.00  0.00     0.086 A 
ATOM      5  O   UNL d   1      45.374  27.243  56.627  0.00  0.00    -0.266 OA
ATOM      6  C   UNL d   1      44.803  25.796  56.088  0.00  0.00     0.012 C 
ATOM      7  S   UNL d   1      44.570  25.385  57.433  0.00  0.00    -0.077 SA
ATOM      8  C   UNL d   1      44.595  25.538  58.238  0.00  0.00     0.086 A 
ATOM      9  C   UNL d   1      44.880  26.260  58.520  0.00  0.00     0.273 A 
ATOM     10  C   UNL d   1      44.335  24.970  58.776  0.00  0.00     0.012 C 
ATOM     11  O   UNL d   1      44.906  26.417  59.327  0.00  0.00    -0.266 OA
ENDBRANCH   1   2
BRANCH   1  12
ATOM     12  C   UNL d   1      44.908  28.183  58.375  0.00  0.00     0.297 C 
ATOM     13  N   UNL d   1      44.972  28.651  59.046  0.00  0.00    -0.205 NA
ATOM     14  O   UNL d   1      44.315  28.339  57.823  0.00  0.00    -0.264 OA
BRANCH  13  15
ATOM     15  C   UNL d   1      44.457  29.274  59.182  0.00  0.00     0.102 C 
BRANCH  15  16
ATOM     16  C   UNL d   1      44.544  29.766  59.839  0.00  0.00     0.019 A 
ATOM     17  C   UNL d   1      44.473  29.450  60.598  0.00  0.00     0.004 A 
ATOM     18  C   UNL d   1      44.560  29.939  61.260  0.00  0.00     0.030 A 
ATOM     19  C   UNL d   1      44.718  30.738  61.155  0.00  0.00     0.140 A 
ATOM     20  C   UNL d   1      44.789  31.056  60.396  0.00  0.00     0.030 A 
ATOM     21  F   UNL d   1      44.807  31.236  61.810  0.00  0.00    -0.204 F 
ATOM     22  C   UNL d   1      44.702  30.567  59.730  0.00  0.00     0.004 A 
ENDBRANCH  15  16
ENDBRANCH  13  15
ENDBRANCH   1  12
TORSDOF 4
ENDMDL
MODEL 8
REMARK VINA RESULT:      -5.5     10.692     11.238
REMARK  4 active torsions:
REMARK  status: ('A' for Active; 'I' for Inactive)
REMARK    1  A    between atoms: C_7  and  N_1 
REMARK    2  A    between atoms: C_8  and  C_7 
REMARK       I    between atoms: N_11  and  C_8 
REMARK    3  A    between atoms: C_13  and  N_11 
REMARK    4  A    between atoms: C_15  and  C_13 
ROOT
ATOM      1  C   UNL d   1      44.315  25.482  56.379  0.00  0.00     0.148 C 
ENDROOT
BRANCH   1   2
ATOM      2  N   UNL d   1      44.494  24.735  56.078  0.00  0.00    -0.235 N 
ATOM      3  C   UNL d   1      44.494  24.611  55.259  0.00  0.00     0.273 A 
ATOM      4  C   UNL d   1      44.671  23.871  54.961  0.00  0.00     0.086 A 
ATOM      5  O   UNL d   1      44.314  25.235  54.747  0.00  0.00    -0.266 OA
ATOM      6  C   UNL d   1      44.670  23.748  54.138  0.00  0.00     0.012 C 
ATOM      7  S   UNL d   1      44.849  23.247  55.460  0.00  0.00    -0.077 SA
ATOM      8  C   UNL d   1      44.851  23.366  56.271  0.00  0.00     0.086 A 
ATOM      9  C   UNL d   1      44.675  24.107  56.588  0.00  0.00     0.273 A 
ATOM     10  C   UNL d   1      45.030  22.742  56.780  0.00  0.00     0.012 C 
ATOM     11  O   UNL d   1      44.675  24.229  57.402  0.00  0.00    -0.266 OA
ENDBRANCH   1   2
BRANCH   1  12
ATOM     12  C   UNL d   1      44.918  26.029  56.501  0.00  0.00     0.297 C 
ATOM     13  N   UNL d   1      44.750  26.782  56.782  0.00  0.00    -0.205 NA
ATOM     14  O   UNL d   1      45.699  25.818  56.339  0.00  0.00    -0.264 OA
BRANCH  13  15
ATOM     15  C   UNL d   1      45.344  27.333  56.906  0.00  0.00     0.102 C 
BRANCH  15  16
ATOM     16  C   UNL d   1      45.177  28.082  57.210  0.00  0.00     0.019 A 
ATOM     17  C   UNL d   1      45.249  28.218  58.021  0.00  0.00     0.004 A 
ATOM     18  C   UNL d   1      45.082  28.968  58.330  0.00  0.00     0.030 A 
ATOM     19  C   UNL d   1      44.844  29.571  57.825  0.00  0.00     0.140 A 
ATOM     20  C   UNL d   1      44.771  29.435  57.015  0.00  0.00     0.030 A 
ATOM     21  F   UNL d   1      44.674  30.324  58.125  0.00  0.00    -0.204 F 
ATOM     22  C   UNL d   1      44.939  28.684  56.702  0.00  0.00     0.004 A 
ENDBRANCH  15  16
ENDBRANCH  13  15
ENDBRANCH   1  12
TORSDOF 4
ENDMDL
