MODEL 1
REMARK VINA RESULT:      33.9      0.000      0.000
REMARK  3 active torsions:
REMARK  status: ('A' for Active; 'I' for Inactive)
REMARK    1  A    between atoms: C_6  and  C_1 
REMARK    2  A    between atoms: C_8  and  C_3 
REMARK    3  A    between atoms: C_9  and  C_4 
ROOT
ATOM      1  C   UNL d   1      57.666  49.571  50.370  0.00  0.00     0.306 A 
ATOM      2  N   UNL d   1      57.162  49.610  51.015  0.00  0.00    -0.152 NA
ATOM      3  C   UNL d   1      58.483  49.576  50.483  0.00  0.00     0.114 A 
ATOM      4  C   UNL d   1      58.801  49.622  51.241  0.00  0.00     0.094 A 
ATOM      5  C   UNL d   1      57.472  49.656  51.772  0.00  0.00     0.371 A 
ATOM      6  N   UNL d   1      58.289  49.662  51.885  0.00  0.00    -0.191 NA
ATOM      7  O   UNL d   1      56.967  49.696  52.426  0.00  0.00    -0.242 OA
ATOM      8  O   UNL d   1      58.175  49.531  49.722  0.00  0.00    -0.266 OA
ENDROOT
BRANCH   4   9
ATOM      9  C   UNL d   1      59.615  49.627  51.353  0.00  0.00     0.018 A 
ATOM     10  C   UNL d   1      60.122  49.695  50.706  0.00  0.00     0.004 A 
ATOM     11  C   UNL d   1      60.945  49.700  50.820  0.00  0.00     0.030 A 
ATOM     12  C   UNL d   1      61.255  49.639  51.575  0.00  0.00     0.140 A 
ATOM     13  C   UNL d   1      60.742  49.571  52.230  0.00  0.00     0.030 A 
ATOM     14  F   UNL d   1      62.068  49.645  51.687  0.00  0.00    -0.204 F 
ATOM     15  C   UNL d   1      59.930  49.566  52.109  0.00  0.00     0.004 A 
ENDBRANCH   4   9
BRANCH   3  16
ATOM     16  C   UNL d   1      58.988  49.536  49.834  0.00  0.00     0.202 C 
ATOM     17  O   UNL d   1      58.689  49.381  49.076  0.00  0.00    -0.286 OA
ATOM     18  C   UNL d   1      59.803  49.651  49.935  0.00  0.00     0.045 C 
ENDBRANCH   3  16
BRANCH   1  19
ATOM     19  C   UNL d   1      56.907  49.552  50.048  0.00  0.00     0.470 C 
ATOM     20  F   UNL d   1      56.232  49.540  49.739  0.00  0.00    -0.162 F 
ATOM     21  F   UNL d   1      56.673  49.673  49.226  0.00  0.00    -0.162 F 
ATOM     22  F   UNL d   1      56.153  49.411  50.429  0.00  0.00    -0.162 F 
ENDBRANCH   1  19
TORSDOF 3
ENDMDL
