MODEL 1
REMARK VINA RESULT:      -5.6      0.000      0.000
REMARK  7 active torsions:
REMARK  status: ('A' for Active; 'I' for Inactive)
REMARK    1  A    between atoms: N_15  and  C_4 
REMARK    2  A    between atoms: C_17  and  N_5 
REMARK    3  A    between atoms: C_19  and  N_10 
REMARK    4  A    between atoms: C_11  and  S_16 
REMARK    5  A    between atoms: S_16  and  C_28 
REMARK    6  A    between atoms: C_27  and  C_17 
REMARK    7  A    between atoms: C_28  and  C_27 
ROOT
ATOM      1  C   UNL d   1      53.126  32.285  53.673  0.00  0.00     0.191 A 
ATOM      2  C   UNL d   1      52.579  32.526  53.103  0.00  0.00     0.174 A 
ATOM      3  N   UNL d   1      53.363  32.944  54.122  0.00  0.00    -0.042 NA
ATOM      4  C   UNL d   1      52.946  33.601  53.812  0.00  0.00     0.722 A 
ATOM      5  N   UNL d   1      52.469  33.358  53.196  0.00  0.00    -0.136 N 
ATOM      6  N   UNL d   1      53.358  31.471  53.725  0.00  0.00    -0.239 N 
ATOM      7  C   UNL d   1      53.009  30.913  53.174  0.00  0.00     0.358 A 
ATOM      8  N   UNL d   1      52.464  31.189  52.616  0.00  0.00    -0.152 NA
ATOM      9  C   UNL d   1      52.250  32.008  52.585  0.00  0.00     0.303 A 
ATOM     10  O   UNL d   1      53.215  30.098  53.196  0.00  0.00    -0.244 OA
ATOM     11  O   UNL d   1      51.694  32.252  52.006  0.00  0.00    -0.263 OA
ATOM     12  C   UNL d   1      53.905  31.218  54.291  0.00  0.00     0.105 C 
ENDROOT
BRANCH   5  13
ATOM     13  C   UNL d   1      52.028  33.943  52.840  0.00  0.00     0.072 C 
BRANCH  13  14
ATOM     14  C   UNL d   1      51.198  33.861  52.814  0.00  0.00     0.052 C 
ATOM     15  C   UNL d   1      51.376  34.414  52.228  0.00  0.00     0.007 C 
BRANCH  14  16
ATOM     16  C   UNL d   1      50.757  34.297  52.270  0.00  0.00     0.071 C 
BRANCH  16  17
ATOM     17  S   UNL d   1      50.006  34.554  52.451  0.00  0.00    -0.073 SA
BRANCH  17  18
ATOM     18  C   UNL d   1      49.411  34.558  51.880  0.00  0.00     0.215 A 
ATOM     19  N   UNL d   1      48.699  34.971  51.923  0.00  0.00    -0.186 N 
ATOM     20  N   UNL d   1      48.271  34.821  51.240  0.00  0.00    -0.038 NA
ATOM     21  N   UNL d   1      48.718  34.312  50.769  0.00  0.00    -0.022 NA
ATOM     22  N   UNL d   1      49.423  34.151  51.166  0.00  0.00    -0.101 NA
BRANCH  19  23
ATOM     23  C   UNL d   1      48.458  35.453  52.548  0.00  0.00     0.087 A 
ATOM     24  C   UNL d   1      48.224  36.227  52.395  0.00  0.00     0.019 A 
ATOM     25  C   UNL d   1      47.983  36.709  53.019  0.00  0.00     0.002 A 
ATOM     26  C   UNL d   1      47.976  36.417  53.792  0.00  0.00     0.000 A 
ATOM     27  C   UNL d   1      48.214  35.635  53.936  0.00  0.00     0.002 A 
ATOM     28  C   UNL d   1      48.455  35.153  53.311  0.00  0.00     0.019 A 
ENDBRANCH  19  23
ENDBRANCH  17  18
ENDBRANCH  16  17
ENDBRANCH  14  16
ENDBRANCH  13  14
ENDBRANCH   5  13
BRANCH   4  29
ATOM     29  N   UNL d   1      53.004  34.378  54.086  0.00  0.00    -0.136 N 
ATOM     30  C   UNL d   1      53.454  34.931  53.661  0.00  0.00     0.117 A 
ATOM     31  C   UNL d   1      53.505  35.705  53.944  0.00  0.00     0.100 A 
ATOM     32  N   UNL d   1      53.114  35.931  54.641  0.00  0.00    -0.299 N 
ATOM     33  C   UNL d   1      52.671  35.370  55.052  0.00  0.00     0.100 A 
ATOM     34  C   UNL d   1      53.173  36.709  54.915  0.00  0.00     0.100 C 
ATOM     35  C   UNL d   1      52.612  34.596  54.781  0.00  0.00     0.117 A 
ENDBRANCH   4  29
TORSDOF 7
ENDMDL
MODEL 2
REMARK VINA RESULT:      -4.9      1.769      2.369
REMARK  7 active torsions:
REMARK  status: ('A' for Active; 'I' for Inactive)
REMARK    1  A    between atoms: N_15  and  C_4 
REMARK    2  A    between atoms: C_17  and  N_5 
REMARK    3  A    between atoms: C_19  and  N_10 
REMARK    4  A    between atoms: C_11  and  S_16 
REMARK    5  A    between atoms: S_16  and  C_28 
REMARK    6  A    between atoms: C_27  and  C_17 
REMARK    7  A    between atoms: C_28  and  C_27 
ROOT
ATOM      1  C   UNL d   1      53.417  30.501  53.907  0.00  0.00     0.191 A 
ATOM      2  C   UNL d   1      53.023  30.980  53.361  0.00  0.00     0.174 A 
ATOM      3  N   UNL d   1      53.916  30.972  54.378  0.00  0.00    -0.042 NA
ATOM      4  C   UNL d   1      53.819  31.758  54.106  0.00  0.00     0.722 A 
ATOM      5  N   UNL d   1      53.281  31.773  53.492  0.00  0.00    -0.136 N 
ATOM      6  N   UNL d   1      53.277  29.664  53.919  0.00  0.00    -0.239 N 
ATOM      7  C   UNL d   1      52.721  29.337  53.354  0.00  0.00     0.358 A 
ATOM      8  N   UNL d   1      52.345  29.846  52.822  0.00  0.00    -0.152 NA
ATOM      9  C   UNL d   1      52.502  30.678  52.830  0.00  0.00     0.303 A 
ATOM     10  O   UNL d   1      52.558  28.512  53.337  0.00  0.00    -0.244 OA
ATOM     11  O   UNL d   1      52.102  31.165  52.276  0.00  0.00    -0.263 OA
ATOM     12  C   UNL d   1      53.666  29.174  54.461  0.00  0.00     0.105 C 
ENDROOT
BRANCH   5  13
ATOM     13  C   UNL d   1      53.132  32.507  53.172  0.00  0.00     0.072 C 
BRANCH  13  14
ATOM     14  C   UNL d   1      52.342  32.774  53.130  0.00  0.00     0.052 C 
ATOM     15  C   UNL d   1      52.784  33.353  52.742  0.00  0.00     0.007 C 
BRANCH  14  16
ATOM     16  C   UNL d   1      52.167  33.486  52.752  0.00  0.00     0.071 C 
BRANCH  16  17
ATOM     17  S   UNL d   1      51.396  33.705  52.610  0.00  0.00    -0.073 SA
BRANCH  17  18
ATOM     18  C   UNL d   1      51.064  34.358  52.991  0.00  0.00     0.215 A 
ATOM     19  N   UNL d   1      50.386  34.764  52.758  0.00  0.00    -0.186 N 
ATOM     20  N   UNL d   1      50.253  35.374  53.289  0.00  0.00    -0.038 NA
ATOM     21  N   UNL d   1      50.852  35.348  53.857  0.00  0.00    -0.022 NA
ATOM     22  N   UNL d   1      51.352  34.719  53.671  0.00  0.00    -0.101 NA
BRANCH  19  23
ATOM     23  C   UNL d   1      49.920  34.587  52.100  0.00  0.00     0.087 A 
ATOM     24  C   UNL d   1      49.127  34.396  52.206  0.00  0.00     0.019 A 
ATOM     25  C   UNL d   1      48.660  34.219  51.549  0.00  0.00     0.002 A 
ATOM     26  C   UNL d   1      48.988  34.233  50.791  0.00  0.00     0.000 A 
ATOM     27  C   UNL d   1      49.788  34.427  50.694  0.00  0.00     0.002 A 
ATOM     28  C   UNL d   1      50.254  34.604  51.352  0.00  0.00     0.019 A 
ENDBRANCH  19  23
ENDBRANCH  17  18
ENDBRANCH  16  17
ENDBRANCH  14  16
ENDBRANCH  13  14
ENDBRANCH   5  13
BRANCH   4  29
ATOM     29  N   UNL d   1      54.206  32.422  54.410  0.00  0.00    -0.136 N 
ATOM     30  C   UNL d   1      54.826  32.769  53.982  0.00  0.00     0.117 A 
ATOM     31  C   UNL d   1      55.205  33.432  54.296  0.00  0.00     0.100 A 
ATOM     32  N   UNL d   1      54.973  33.749  55.028  0.00  0.00    -0.299 N 
ATOM     33  C   UNL d   1      54.355  33.393  55.441  0.00  0.00     0.100 A 
ATOM     34  C   UNL d   1      55.361  34.414  55.332  0.00  0.00     0.100 C 
ATOM     35  C   UNL d   1      53.969  32.733  55.140  0.00  0.00     0.117 A 
ENDBRANCH   4  29
TORSDOF 7
ENDMDL
MODEL 3
REMARK VINA RESULT:      -4.0      1.322      2.902
REMARK  7 active torsions:
REMARK  status: ('A' for Active; 'I' for Inactive)
REMARK    1  A    between atoms: N_15  and  C_4 
REMARK    2  A    between atoms: C_17  and  N_5 
REMARK    3  A    between atoms: C_19  and  N_10 
REMARK    4  A    between atoms: C_11  and  S_16 
REMARK    5  A    between atoms: S_16  and  C_28 
REMARK    6  A    between atoms: C_27  and  C_17 
REMARK    7  A    between atoms: C_28  and  C_27 
ROOT
ATOM      1  C   UNL d   1      53.331  34.161  54.320  0.00  0.00     0.191 A 
ATOM      2  C   UNL d   1      52.679  34.431  53.891  0.00  0.00     0.174 A 
ATOM      3  N   UNL d   1      53.411  33.340  54.210  0.00  0.00    -0.042 NA
ATOM      4  C   UNL d   1      52.789  33.111  53.700  0.00  0.00     0.722 A 
ATOM      5  N   UNL d   1      52.341  33.763  53.501  0.00  0.00    -0.136 N 
ATOM      6  N   UNL d   1      53.795  34.704  54.778  0.00  0.00    -0.239 N 
ATOM      7  C   UNL d   1      53.568  35.531  54.780  0.00  0.00     0.358 A 
ATOM      8  N   UNL d   1      52.910  35.766  54.339  0.00  0.00    -0.152 NA
ATOM      9  C   UNL d   1      52.462  35.205  53.890  0.00  0.00     0.303 A 
ATOM     10  O   UNL d   1      54.005  36.097  55.222  0.00  0.00    -0.244 OA
ATOM     11  O   UNL d   1      51.800  35.479  53.454  0.00  0.00    -0.263 OA
ATOM     12  C   UNL d   1      54.450  34.445  55.212  0.00  0.00     0.105 C 
ENDROOT
BRANCH   5  13
ATOM     13  C   UNL d   1      51.712  33.620  53.004  0.00  0.00     0.072 C 
BRANCH  13  14
ATOM     14  C   UNL d   1      51.062  34.143  53.017  0.00  0.00     0.052 C 
ATOM     15  C   UNL d   1      50.936  33.664  52.357  0.00  0.00     0.007 C 
BRANCH  14  16
ATOM     16  C   UNL d   1      50.479  34.093  52.436  0.00  0.00     0.071 C 
BRANCH  16  17
ATOM     17  S   UNL d   1      49.786  34.517  52.500  0.00  0.00    -0.073 SA
BRANCH  17  18
ATOM     18  C   UNL d   1      49.260  34.565  51.867  0.00  0.00     0.215 A 
ATOM     19  N   UNL d   1      48.556  34.993  51.852  0.00  0.00    -0.186 N 
ATOM     20  N   UNL d   1      48.205  34.889  51.119  0.00  0.00    -0.038 NA
ATOM     21  N   UNL d   1      48.692  34.393  50.674  0.00  0.00    -0.022 NA
ATOM     22  N   UNL d   1      49.344  34.193  51.138  0.00  0.00    -0.101 NA
BRANCH  19  23
ATOM     23  C   UNL d   1      48.256  35.450  52.470  0.00  0.00     0.087 A 
ATOM     24  C   UNL d   1      48.439  36.251  52.508  0.00  0.00     0.019 A 
ATOM     25  C   UNL d   1      48.139  36.708  53.126  0.00  0.00     0.002 A 
ATOM     26  C   UNL d   1      47.658  36.363  53.702  0.00  0.00     0.000 A 
ATOM     27  C   UNL d   1      47.479  35.554  53.656  0.00  0.00     0.002 A 
ATOM     28  C   UNL d   1      47.779  35.098  53.038  0.00  0.00     0.019 A 
ENDBRANCH  19  23
ENDBRANCH  17  18
ENDBRANCH  16  17
ENDBRANCH  14  16
ENDBRANCH  13  14
ENDBRANCH   5  13
BRANCH   4  29
ATOM     29  N   UNL d   1      52.646  32.342  53.434  0.00  0.00    -0.136 N 
ATOM     30  C   UNL d   1      53.093  32.033  52.807  0.00  0.00     0.117 A 
ATOM     31  C   UNL d   1      52.941  31.263  52.550  0.00  0.00     0.100 A 
ATOM     32  N   UNL d   1      52.351  30.802  52.910  0.00  0.00    -0.299 N 
ATOM     33  C   UNL d   1      51.915  31.123  53.532  0.00  0.00     0.100 A 
ATOM     34  C   UNL d   1      52.208  30.032  52.644  0.00  0.00     0.100 C 
ATOM     35  C   UNL d   1      52.057  31.888  53.797  0.00  0.00     0.117 A 
ENDBRANCH   4  29
TORSDOF 7
ENDMDL
MODEL 4
REMARK VINA RESULT:      -4.0      2.047      5.280
REMARK  7 active torsions:
REMARK  status: ('A' for Active; 'I' for Inactive)
REMARK    1  A    between atoms: N_15  and  C_4 
REMARK    2  A    between atoms: C_17  and  N_5 
REMARK    3  A    between atoms: C_19  and  N_10 
REMARK    4  A    between atoms: C_11  and  S_16 
REMARK    5  A    between atoms: S_16  and  C_28 
REMARK    6  A    between atoms: C_27  and  C_17 
REMARK    7  A    between atoms: C_28  and  C_27 
ROOT
ATOM      1  C   UNL d   1      53.447  34.444  54.413  0.00  0.00     0.191 A 
ATOM      2  C   UNL d   1      53.622  33.679  54.155  0.00  0.00     0.174 A 
ATOM      3  N   UNL d   1      52.748  34.705  54.047  0.00  0.00    -0.042 NA
ATOM      4  C   UNL d   1      52.495  34.078  53.553  0.00  0.00     0.722 A 
ATOM      5  N   UNL d   1      53.017  33.454  53.612  0.00  0.00    -0.136 N 
ATOM      6  N   UNL d   1      53.956  34.833  54.970  0.00  0.00    -0.239 N 
ATOM      7  C   UNL d   1      54.649  34.411  55.251  0.00  0.00     0.358 A 
ATOM      8  N   UNL d   1      54.793  33.648  54.971  0.00  0.00    -0.152 NA
ATOM      9  C   UNL d   1      54.269  33.281  54.415  0.00  0.00     0.303 A 
ATOM     10  O   UNL d   1      55.175  34.766  55.803  0.00  0.00    -0.244 OA
ATOM     11  O   UNL d   1      54.447  32.504  54.153  0.00  0.00    -0.263 OA
ATOM     12  C   UNL d   1      53.791  35.599  55.236  0.00  0.00     0.105 C 
ENDROOT
BRANCH   5  13
ATOM     13  C   UNL d   1      52.838  32.801  53.158  0.00  0.00     0.072 C 
BRANCH  13  14
ATOM     14  C   UNL d   1      52.810  32.052  53.525  0.00  0.00     0.052 C 
ATOM     15  C   UNL d   1      52.883  31.892  52.719  0.00  0.00     0.007 C 
BRANCH  14  16
ATOM     16  C   UNL d   1      52.855  31.367  53.068  0.00  0.00     0.071 C 
BRANCH  16  17
ATOM     17  S   UNL d   1      53.052  30.652  53.404  0.00  0.00    -0.073 SA
BRANCH  17  18
ATOM     18  C   UNL d   1      52.802  29.942  53.067  0.00  0.00     0.215 A 
ATOM     19  N   UNL d   1      52.795  29.205  53.435  0.00  0.00    -0.186 N 
ATOM     20  N   UNL d   1      52.505  28.652  52.904  0.00  0.00    -0.038 NA
ATOM     21  N   UNL d   1      52.330  29.047  52.200  0.00  0.00    -0.022 NA
ATOM     22  N   UNL d   1      52.514  29.844  52.303  0.00  0.00    -0.101 NA
BRANCH  19  23
ATOM     23  C   UNL d   1      53.038  29.049  54.208  0.00  0.00     0.087 A 
ATOM     24  C   UNL d   1      52.521  29.191  54.832  0.00  0.00     0.019 A 
ATOM     25  C   UNL d   1      52.764  29.036  55.605  0.00  0.00     0.002 A 
ATOM     26  C   UNL d   1      53.522  28.740  55.751  0.00  0.00     0.000 A 
ATOM     27  C   UNL d   1      54.036  28.600  55.115  0.00  0.00     0.002 A 
ATOM     28  C   UNL d   1      53.792  28.756  54.343  0.00  0.00     0.019 A 
ENDBRANCH  19  23
ENDBRANCH  17  18
ENDBRANCH  16  17
ENDBRANCH  14  16
ENDBRANCH  13  14
ENDBRANCH   5  13
BRANCH   4  29
ATOM     29  N   UNL d   1      51.820  34.085  53.077  0.00  0.00    -0.136 N 
ATOM     30  C   UNL d   1      51.081  33.905  53.408  0.00  0.00     0.117 A 
ATOM     31  C   UNL d   1      50.413  33.915  52.922  0.00  0.00     0.100 A 
ATOM     32  N   UNL d   1      50.475  34.102  52.115  0.00  0.00    -0.299 N 
ATOM     33  C   UNL d   1      51.217  34.279  51.801  0.00  0.00     0.100 A 
ATOM     34  C   UNL d   1      49.799  34.110  51.639  0.00  0.00     0.100 C 
ATOM     35  C   UNL d   1      51.889  34.272  52.274  0.00  0.00     0.117 A 
ENDBRANCH   4  29
TORSDOF 7
ENDMDL
MODEL 5
REMARK VINA RESULT:      -3.1      1.956      5.114
REMARK  7 active torsions:
REMARK  status: ('A' for Active; 'I' for Inactive)
REMARK    1  A    between atoms: N_15  and  C_4 
REMARK    2  A    between atoms: C_17  and  N_5 
REMARK    3  A    between atoms: C_19  and  N_10 
REMARK    4  A    between atoms: C_11  and  S_16 
REMARK    5  A    between atoms: S_16  and  C_28 
REMARK    6  A    between atoms: C_27  and  C_17 
REMARK    7  A    between atoms: C_28  and  C_27 
ROOT
ATOM      1  C   UNL d   1      51.538  34.411  53.502  0.00  0.00     0.191 A 
ATOM      2  C   UNL d   1      51.737  33.717  53.100  0.00  0.00     0.174 A 
ATOM      3  N   UNL d   1      52.151  34.610  54.028  0.00  0.00    -0.042 NA
ATOM      4  C   UNL d   1      52.736  34.017  53.941  0.00  0.00     0.722 A 
ATOM      5  N   UNL d   1      52.495  33.473  53.382  0.00  0.00    -0.136 N 
ATOM      6  N   UNL d   1      50.801  34.800  53.342  0.00  0.00    -0.239 N 
ATOM      7  C   UNL d   1      50.277  34.452  52.757  0.00  0.00     0.358 A 
ATOM      8  N   UNL d   1      50.509  33.757  52.375  0.00  0.00    -0.152 NA
ATOM      9  C   UNL d   1      51.251  33.388  52.553  0.00  0.00     0.303 A 
ATOM     10  O   UNL d   1      49.539  34.810  52.574  0.00  0.00    -0.244 OA
ATOM     11  O   UNL d   1      51.453  32.683  52.145  0.00  0.00    -0.263 OA
ATOM     12  C   UNL d   1      50.590  35.495  53.737  0.00  0.00     0.105 C 
ENDROOT
BRANCH   5  13
ATOM     13  C   UNL d   1      53.014  32.862  53.240  0.00  0.00     0.072 C 
BRANCH  13  14
ATOM     14  C   UNL d   1      52.749  32.077  53.342  0.00  0.00     0.052 C 
ATOM     15  C   UNL d   1      53.461  32.009  52.932  0.00  0.00     0.007 C 
BRANCH  14  16
ATOM     16  C   UNL d   1      53.195  31.449  53.049  0.00  0.00     0.071 C 
BRANCH  16  17
ATOM     17  S   UNL d   1      53.225  30.737  53.444  0.00  0.00    -0.073 SA
BRANCH  17  18
ATOM     18  C   UNL d   1      52.971  30.041  53.082  0.00  0.00     0.215 A 
ATOM     19  N   UNL d   1      52.909  29.302  53.439  0.00  0.00    -0.186 N 
ATOM     20  N   UNL d   1      52.636  28.766  52.882  0.00  0.00    -0.038 NA
ATOM     21  N   UNL d   1      52.528  29.173  52.172  0.00  0.00    -0.022 NA
ATOM     22  N   UNL d   1      52.736  29.962  52.297  0.00  0.00    -0.101 NA
BRANCH  19  23
ATOM     23  C   UNL d   1      53.090  29.130  54.226  0.00  0.00     0.087 A 
ATOM     24  C   UNL d   1      53.802  28.757  54.405  0.00  0.00     0.019 A 
ATOM     25  C   UNL d   1      53.983  28.585  55.191  0.00  0.00     0.002 A 
ATOM     26  C   UNL d   1      53.455  28.785  55.793  0.00  0.00     0.000 A 
ATOM     27  C   UNL d   1      52.740  29.160  55.603  0.00  0.00     0.002 A 
ATOM     28  C   UNL d   1      52.559  29.332  54.816  0.00  0.00     0.019 A 
ENDBRANCH  19  23
ENDBRANCH  17  18
ENDBRANCH  16  17
ENDBRANCH  14  16
ENDBRANCH  13  14
ENDBRANCH   5  13
BRANCH   4  29
ATOM     29  N   UNL d   1      53.450  33.984  54.354  0.00  0.00    -0.136 N 
ATOM     30  C   UNL d   1      54.146  34.258  53.997  0.00  0.00     0.117 A 
ATOM     31  C   UNL d   1      54.854  34.220  54.420  0.00  0.00     0.100 A 
ATOM     32  N   UNL d   1      54.874  33.913  55.191  0.00  0.00    -0.299 N 
ATOM     33  C   UNL d   1      54.173  33.645  55.534  0.00  0.00     0.100 A 
ATOM     34  C   UNL d   1      55.589  33.880  55.606  0.00  0.00     0.100 C 
ATOM     35  C   UNL d   1      53.462  33.677  55.123  0.00  0.00     0.117 A 
ENDBRANCH   4  29
TORSDOF 7
ENDMDL
