MODEL 1
REMARK VINA RESULT:      29.3      0.000      0.000
REMARK  3 active torsions:
REMARK  status: ('A' for Active; 'I' for Inactive)
REMARK    1  A    between atoms: C_4  and  N_1 
REMARK    2  A    between atoms: S_5  and  C_6 
REMARK    3  A    between atoms: C_9  and  S_5 
ROOT
ATOM      1  C   UNL d   1      13.627  12.442  -3.374  0.00  0.00     0.078 A 
ATOM      2  C   UNL d   1      13.412  13.197  -3.656  0.00  0.00     0.080 A 
ATOM      3  C   UNL d   1      13.523  11.779  -3.853  0.00  0.00     0.018 A 
ATOM      4  C   UNL d   1      13.094  13.275  -4.416  0.00  0.00     0.010 A 
ATOM      5  C   UNL d   1      13.206  11.859  -4.610  0.00  0.00     0.002 A 
ATOM      6  C   UNL d   1      12.991  12.610  -4.893  0.00  0.00     0.001 A 
ENDROOT
BRANCH   1   7
ATOM      7  N   UNL d   1      13.943  12.361  -2.619  0.00  0.00    -0.241 N 
ATOM      8  C   UNL d   1      14.706  12.568  -2.386  0.00  0.00     0.267 A 
ATOM      9  C   UNL d   1      14.782  12.392  -1.587  0.00  0.00     0.061 A 
ATOM     10  O   UNL d   1      15.290  12.894  -2.871  0.00  0.00    -0.267 OA
ATOM     11  C   UNL d   1      15.411  12.480  -1.067  0.00  0.00     0.005 A 
ATOM     12  C   UNL d   1      14.072  12.077  -1.321  0.00  0.00     0.061 A 
ATOM     13  C   UNL d   1      15.330  12.252  -0.277  0.00  0.00     0.000 A 
ATOM     14  C   UNL d   1      14.609  11.934  -0.017  0.00  0.00     0.000 A 
ATOM     15  C   UNL d   1      13.984  11.849  -0.540  0.00  0.00     0.005 A 
ATOM     16  C   UNL d   1      13.549  12.056  -1.959  0.00  0.00     0.267 A 
ATOM     17  O   UNL d   1      12.769  11.780  -1.943  0.00  0.00    -0.267 OA
ENDBRANCH   1   7
BRANCH   2  18
ATOM     18  S   UNL d   1      13.516  13.861  -3.177  0.00  0.00     0.160 S 
ATOM     19  O   UNL d   1      13.612  14.277  -2.556  0.00  0.00    -0.244 OA
BRANCH  18  20
ATOM     20  C   UNL d   1      13.547  14.611  -3.518  0.00  0.00     0.477 C 
ATOM     21  F   UNL d   1      12.939  15.039  -3.961  0.00  0.00    -0.158 F 
ATOM     22  F   UNL d   1      14.199  15.180  -3.527  0.00  0.00    -0.158 F 
ATOM     23  F   UNL d   1      13.576  15.294  -3.829  0.00  0.00    -0.158 F 
ENDBRANCH  18  20
ENDBRANCH   2  18
TORSDOF 3
ENDMDL
