MODEL 1
REMARK VINA RESULT:      -2.0      0.000      0.000
REMARK  6 active torsions:
REMARK  status: ('A' for Active; 'I' for Inactive)
REMARK    1  A    between atoms: S_2  and  N_1 
REMARK    2  A    between atoms: C_11  and  S_2 
REMARK    3  A    between atoms: C_6  and  C_4 
REMARK    4  A    between atoms: C_12  and  C_5 
REMARK    5  A    between atoms: O_14  and  C_8 
REMARK    6  A    between atoms: O_16  and  C_13 
ROOT
ATOM      1  N   UNL d   1      32.777  21.033 -21.790  0.00  0.00    -0.152 N 
ATOM      2  N   UNL d   1      32.767  20.194 -21.785  0.00  0.00    -0.155 NA
ATOM      3  C   UNL d   1      32.946  21.299 -22.554  0.00  0.00     0.098 A 
ATOM      4  C   UNL d   1      32.932  19.941 -22.552  0.00  0.00     0.104 A 
ATOM      5  C   UNL d   1      33.040  20.628 -23.018  0.00  0.00     0.041 A 
ENDROOT
BRANCH   3   6
ATOM      6  C   UNL d   1      33.008  22.084 -22.800  0.00  0.00     0.043 A 
ATOM      7  C   UNL d   1      32.900  22.277 -23.595  0.00  0.00     0.118 A 
ATOM      8  C   UNL d   1      32.962  23.062 -23.841  0.00  0.00     0.116 A 
ATOM      9  C   UNL d   1      33.129  23.628 -23.283  0.00  0.00     0.026 A 
ATOM     10  C   UNL d   1      33.241  23.463 -22.489  0.00  0.00     0.002 A 
ATOM     11  C   UNL d   1      33.179  22.678 -22.244  0.00  0.00     0.004 A 
BRANCH   7  12
ATOM     12  O   UNL d   1      32.730  21.685 -24.144  0.00  0.00    -0.326 OA
ATOM     13  C   UNL d   1      33.052  21.723 -24.902  0.00  0.00     0.181 C 
ENDBRANCH   7  12
BRANCH   8  14
ATOM     14  O   UNL d   1      32.852  23.230 -24.627  0.00  0.00    -0.326 OA
ATOM     15  C   UNL d   1      32.244  23.690 -24.904  0.00  0.00     0.181 C 
ENDBRANCH   8  14
ENDBRANCH   3   6
BRANCH   1  16
ATOM     16  S   UNL d   1      32.637  21.509 -21.125  0.00  0.00     0.286 S 
ATOM     17  O   UNL d   1      32.045  22.053 -20.939  0.00  0.00    -0.198 OA
ATOM     18  O   UNL d   1      33.211  21.414 -20.535  0.00  0.00    -0.198 OA
BRANCH  16  19
ATOM     19  C   UNL d   1      32.652  21.904 -20.400  0.00  0.00     0.105 A 
ATOM     20  C   UNL d   1      32.116  22.482 -20.264  0.00  0.00     0.013 A 
ATOM     21  C   UNL d   1      32.129  22.880 -19.536  0.00  0.00     0.001 A 
ATOM     22  C   UNL d   1      32.691  22.677 -18.967  0.00  0.00     0.000 A 
ATOM     23  C   UNL d   1      33.239  22.076 -19.125  0.00  0.00     0.001 A 
ATOM     24  C   UNL d   1      33.214  21.701 -19.831  0.00  0.00     0.013 A 
ENDBRANCH  16  19
ENDBRANCH   1  16
BRANCH   4  25
ATOM     25  C   UNL d   1      32.975  19.172 -22.789  0.00  0.00     0.019 A 
ATOM     26  C   UNL d   1      33.186  18.587 -22.240  0.00  0.00     0.002 A 
ATOM     27  C   UNL d   1      33.237  17.790 -22.460  0.00  0.00     0.000 A 
ATOM     28  C   UNL d   1      33.077  17.582 -23.231  0.00  0.00     0.000 A 
ATOM     29  C   UNL d   1      32.864  18.152 -23.798  0.00  0.00     0.000 A 
ATOM     30  C   UNL d   1      32.816  18.962 -23.555  0.00  0.00     0.002 A 
ENDBRANCH   4  25
TORSDOF 6
ENDMDL
MODEL 2
REMARK VINA RESULT:      -0.5      3.215      5.918
REMARK  6 active torsions:
REMARK  status: ('A' for Active; 'I' for Inactive)
REMARK    1  A    between atoms: S_2  and  N_1 
REMARK    2  A    between atoms: C_11  and  S_2 
REMARK    3  A    between atoms: C_6  and  C_4 
REMARK    4  A    between atoms: C_12  and  C_5 
REMARK    5  A    between atoms: O_14  and  C_8 
REMARK    6  A    between atoms: O_16  and  C_13 
ROOT
ATOM      1  N   UNL d   1      31.333  18.215 -24.480  0.00  0.00    -0.152 N 
ATOM      2  N   UNL d   1      31.428  19.049 -24.470  0.00  0.00    -0.155 NA
ATOM      3  C   UNL d   1      32.077  17.856 -24.461  0.00  0.00     0.098 A 
ATOM      4  C   UNL d   1      32.237  19.205 -24.444  0.00  0.00     0.104 A 
ATOM      5  C   UNL d   1      32.628  18.464 -24.439  0.00  0.00     0.041 A 
ENDROOT
BRANCH   3   6
ATOM      6  C   UNL d   1      32.233  17.046 -24.464  0.00  0.00     0.043 A 
ATOM      7  C   UNL d   1      32.658  16.705 -23.843  0.00  0.00     0.118 A 
ATOM      8  C   UNL d   1      32.814  15.895 -23.846  0.00  0.00     0.116 A 
ATOM      9  C   UNL d   1      32.540  15.453 -24.470  0.00  0.00     0.026 A 
ATOM     10  C   UNL d   1      32.118  15.766 -25.097  0.00  0.00     0.002 A 
ATOM     11  C   UNL d   1      31.962  16.576 -25.094  0.00  0.00     0.004 A 
BRANCH   7  12
ATOM     12  O   UNL d   1      32.925  17.175 -23.221  0.00  0.00    -0.326 OA
ATOM     13  C   UNL d   1      33.126  16.828 -22.500  0.00  0.00     0.181 C 
ENDBRANCH   7  12
BRANCH   8  14
ATOM     14  O   UNL d   1      33.232  15.582 -23.226  0.00  0.00    -0.326 OA
ATOM     15  C   UNL d   1      33.012  15.668 -22.450  0.00  0.00     0.181 C 
ENDBRANCH   8  14
ENDBRANCH   3   6
BRANCH   1  16
ATOM     16  S   UNL d   1      30.601  17.825 -24.506  0.00  0.00     0.286 S 
ATOM     17  O   UNL d   1      30.354  17.117 -24.851  0.00  0.00    -0.198 OA
ATOM     18  O   UNL d   1      30.005  18.235 -24.101  0.00  0.00    -0.198 OA
BRANCH  16  19
ATOM     19  C   UNL d   1      29.816  17.581 -24.431  0.00  0.00     0.105 A 
ATOM     20  C   UNL d   1      29.293  17.780 -25.003  0.00  0.00     0.013 A 
ATOM     21  C   UNL d   1      28.504  17.535 -24.930  0.00  0.00     0.001 A 
ATOM     22  C   UNL d   1      28.270  17.094 -24.273  0.00  0.00     0.000 A 
ATOM     23  C   UNL d   1      28.825  16.897 -23.690  0.00  0.00     0.001 A 
ATOM     24  C   UNL d   1      29.582  17.140 -23.775  0.00  0.00     0.013 A 
ENDBRANCH  16  19
ENDBRANCH   1  16
BRANCH   4  25
ATOM     25  C   UNL d   1      32.569  19.939 -24.427  0.00  0.00     0.019 A 
ATOM     26  C   UNL d   1      32.588  20.362 -23.715  0.00  0.00     0.002 A 
ATOM     27  C   UNL d   1      32.924  21.118 -23.673  0.00  0.00     0.000 A 
ATOM     28  C   UNL d   1      33.241  21.448 -24.348  0.00  0.00     0.000 A 
ATOM     29  C   UNL d   1      33.232  21.041 -25.073  0.00  0.00     0.000 A 
ATOM     30  C   UNL d   1      32.884  20.269 -25.097  0.00  0.00     0.002 A 
ENDBRANCH   4  25
TORSDOF 6
ENDMDL
MODEL 3
REMARK VINA RESULT:      -0.5      1.094      3.692
REMARK  6 active torsions:
REMARK  status: ('A' for Active; 'I' for Inactive)
REMARK    1  A    between atoms: S_2  and  N_1 
REMARK    2  A    between atoms: C_11  and  S_2 
REMARK    3  A    between atoms: C_6  and  C_4 
REMARK    4  A    between atoms: C_12  and  C_5 
REMARK    5  A    between atoms: O_14  and  C_8 
REMARK    6  A    between atoms: O_16  and  C_13 
ROOT
ATOM      1  N   UNL d   1      32.906  20.598 -22.378  0.00  0.00    -0.152 N 
ATOM      2  N   UNL d   1      32.927  20.615 -21.539  0.00  0.00    -0.155 NA
ATOM      3  C   UNL d   1      32.992  21.367 -22.668  0.00  0.00     0.098 A 
ATOM      4  C   UNL d   1      33.028  21.400 -21.311  0.00  0.00     0.104 A 
ATOM      5  C   UNL d   1      33.067  21.855 -22.012  0.00  0.00     0.041 A 
ENDROOT
BRANCH   3   6
ATOM      6  C   UNL d   1      33.001  21.597 -23.460  0.00  0.00     0.043 A 
ATOM      7  C   UNL d   1      32.783  22.365 -23.671  0.00  0.00     0.118 A 
ATOM      8  C   UNL d   1      32.792  22.594 -24.463  0.00  0.00     0.116 A 
ATOM      9  C   UNL d   1      33.020  22.048 -25.019  0.00  0.00     0.026 A 
ATOM     10  C   UNL d   1      33.241  21.281 -24.838  0.00  0.00     0.002 A 
ATOM     11  C   UNL d   1      33.231  21.052 -24.045  0.00  0.00     0.004 A 
BRANCH   7  12
ATOM     12  O   UNL d   1      32.556  22.902 -23.088  0.00  0.00    -0.326 OA
ATOM     13  C   UNL d   1      32.358  23.676 -23.296  0.00  0.00     0.181 C 
ENDBRANCH   7  12
BRANCH   8  14
ATOM     14  O   UNL d   1      32.574  23.354 -24.646  0.00  0.00    -0.326 OA
ATOM     15  C   UNL d   1      31.923  23.534 -25.096  0.00  0.00     0.181 C 
ENDBRANCH   8  14
ENDBRANCH   3   6
BRANCH   1  16
ATOM     16  S   UNL d   1      32.812  19.911 -22.833  0.00  0.00     0.286 S 
ATOM     17  O   UNL d   1      33.151  19.655 -23.541  0.00  0.00    -0.198 OA
ATOM     18  O   UNL d   1      32.265  19.381 -22.505  0.00  0.00    -0.198 OA
BRANCH  16  19
ATOM     19  C   UNL d   1      32.598  19.181 -23.154  0.00  0.00     0.105 A 
ATOM     20  C   UNL d   1      33.174  18.677 -23.386  0.00  0.00     0.013 A 
ATOM     21  C   UNL d   1      32.961  17.943 -23.708  0.00  0.00     0.001 A 
ATOM     22  C   UNL d   1      32.165  17.743 -23.784  0.00  0.00     0.000 A 
ATOM     23  C   UNL d   1      31.581  18.277 -23.538  0.00  0.00     0.001 A 
ATOM     24  C   UNL d   1      31.801  18.981 -23.230  0.00  0.00     0.013 A 
ENDBRANCH  16  19
ENDBRANCH   1  16
BRANCH   4  25
ATOM     25  C   UNL d   1      33.078  21.660 -20.550  0.00  0.00     0.019 A 
ATOM     26  C   UNL d   1      33.018  22.472 -20.391  0.00  0.00     0.002 A 
ATOM     27  C   UNL d   1      33.066  22.763 -19.617  0.00  0.00     0.000 A 
ATOM     28  C   UNL d   1      33.174  22.238 -19.003  0.00  0.00     0.000 A 
ATOM     29  C   UNL d   1      33.236  21.420 -19.140  0.00  0.00     0.000 A 
ATOM     30  C   UNL d   1      33.185  21.140 -19.938  0.00  0.00     0.002 A 
ENDBRANCH   4  25
TORSDOF 6
ENDMDL
