MODEL 1
REMARK VINA RESULT:      -4.7      0.000      0.000
REMARK  3 active torsions:
REMARK  status: ('A' for Active; 'I' for Inactive)
REMARK    1  A    between atoms: N_2  and  S_1 
REMARK    2  A    between atoms: N_3  and  S_1 
REMARK    3  A    between atoms: C_6  and  N_3 
ROOT
ATOM      1  S   UNL d   1      58.080   0.304  30.426  0.00  0.00     0.351 S 
ATOM      2  O   UNL d   1      58.369   0.682  31.098  0.00  0.00    -0.180 OA
ATOM      3  O   UNL d   1      57.791  -0.074  29.755  0.00  0.00    -0.180 OA
ENDROOT
BRANCH   1   4
ATOM      4  N   UNL d   1      58.851   0.155  30.179  0.00  0.00    -0.215 N 
ATOM      5  C   UNL d   1      59.470   0.633  30.457  0.00  0.00     0.093 C 
ATOM      6  C   UNL d   1      60.233   0.483  30.209  0.00  0.00     0.020 C 
ATOM      7  C   UNL d   1      60.382  -0.056  29.613  0.00  0.00     0.003 C 
ATOM      8  C   UNL d   1      59.754  -0.453  29.258  0.00  0.00     0.020 C 
ATOM      9  C   UNL d   1      58.976  -0.310  29.499  0.00  0.00     0.093 C 
ENDBRANCH   1   4
BRANCH   1  10
ATOM     10  N   UNL d   1      57.286   0.420  30.615  0.00  0.00    -0.144 NA
BRANCH  10  11
ATOM     11  C   UNL d   1      56.969   0.103  31.327  0.00  0.00     0.095 A 
ATOM     12  C   UNL d   1      56.717   0.615  31.933  0.00  0.00     0.020 A 
ATOM     13  C   UNL d   1      56.394   0.303  32.629  0.00  0.00     0.002 A 
ATOM     14  C   UNL d   1      56.329  -0.522  32.721  0.00  0.00     0.000 A 
ATOM     15  C   UNL d   1      56.577  -1.047  32.120  0.00  0.00     0.002 A 
ATOM     16  C   UNL d   1      56.021  -0.826  33.428  0.00  0.00     0.000 C 
ATOM     17  C   UNL d   1      56.898  -0.725  31.414  0.00  0.00     0.020 A 
ENDBRANCH  10  11
ENDBRANCH   1  10
TORSDOF 3
ENDMDL
MODEL 2
REMARK VINA RESULT:      -3.5      9.441     10.201
REMARK  3 active torsions:
REMARK  status: ('A' for Active; 'I' for Inactive)
REMARK    1  A    between atoms: N_2  and  S_1 
REMARK    2  A    between atoms: N_3  and  S_1 
REMARK    3  A    between atoms: C_6  and  N_3 
ROOT
ATOM      1  S   UNL d   1      60.011  -9.106  34.781  0.00  0.00     0.351 S 
ATOM      2  O   UNL d   1      60.751  -8.888  34.492  0.00  0.00    -0.180 OA
ATOM      3  O   UNL d   1      59.272  -9.323  35.069  0.00  0.00    -0.180 OA
ENDROOT
BRANCH   1   4
ATOM      4  N   UNL d   1      59.979  -8.411  35.221  0.00  0.00    -0.215 N 
ATOM      5  C   UNL d   1      60.684  -8.028  35.436  0.00  0.00     0.093 C 
ATOM      6  C   UNL d   1      60.648  -7.341  35.872  0.00  0.00     0.020 C 
ATOM      7  C   UNL d   1      59.942  -7.084  36.193  0.00  0.00     0.003 C 
ATOM      8  C   UNL d   1      59.258  -7.525  36.073  0.00  0.00     0.020 C 
ATOM      9  C   UNL d   1      59.280  -8.224  35.632  0.00  0.00     0.093 C 
ENDBRANCH   1   4
BRANCH   1  10
ATOM     10  N   UNL d   1      59.980  -9.818  34.366  0.00  0.00    -0.144 NA
BRANCH  10  11
ATOM     11  C   UNL d   1      59.860  -9.818  33.533  0.00  0.00     0.095 A 
ATOM     12  C   UNL d   1      59.087  -9.815  33.225  0.00  0.00     0.020 A 
ATOM     13  C   UNL d   1      58.970  -9.803  32.405  0.00  0.00     0.002 A 
ATOM     14  C   UNL d   1      59.627  -9.801  31.894  0.00  0.00     0.000 A 
ATOM     15  C   UNL d   1      60.408  -9.802  32.190  0.00  0.00     0.002 A 
ATOM     16  C   UNL d   1      59.501  -9.807  31.074  0.00  0.00     0.000 C 
ATOM     17  C   UNL d   1      60.521  -9.808  33.022  0.00  0.00     0.020 A 
ENDBRANCH  10  11
ENDBRANCH   1  10
TORSDOF 3
ENDMDL
