MODEL 1
REMARK VINA RESULT:      20.8      0.000      0.000
REMARK  4 active torsions:
REMARK  status: ('A' for Active; 'I' for Inactive)
REMARK    1  A    between atoms: C_5  and  C_3 
REMARK    2  A    between atoms: S_7  and  C_4 
REMARK    3  A    between atoms: C_10  and  S_7 
REMARK    4  A    between atoms: C_11  and  C_10 
ROOT
ATOM      1  N   UNL d   1      14.420  11.830  -2.876  0.00  0.00    -0.146 NA
ATOM      2  N   UNL d   1      14.008  11.815  -3.591  0.00  0.00    -0.141 NA
ATOM      3  C   UNL d   1      14.007  11.828  -2.158  0.00  0.00     0.121 A 
ATOM      4  C   UNL d   1      13.189  11.798  -3.599  0.00  0.00     0.132 A 
ATOM      5  C   UNL d   1      13.180  11.811  -2.163  0.00  0.00     0.025 A 
ATOM      6  C   UNL d   1      12.772  11.796  -2.878  0.00  0.00     0.029 A 
ENDROOT
BRANCH   4   7
ATOM      7  S   UNL d   1      12.777  11.782  -4.314  0.00  0.00    -0.066 SA
BRANCH   7   8
ATOM      8  C   UNL d   1      13.103  12.117  -4.989  0.00  0.00     0.037 C 
BRANCH   8   9
ATOM      9  C   UNL d   1      13.194  12.938  -5.034  0.00  0.00     0.006 A 
ATOM     10  C   UNL d   1      12.788  13.415  -4.524  0.00  0.00     0.001 A 
ATOM     11  C   UNL d   1      12.875  14.235  -4.566  0.00  0.00     0.000 A 
ATOM     12  C   UNL d   1      13.373  14.567  -5.124  0.00  0.00     0.000 A 
ATOM     13  C   UNL d   1      13.790  14.075  -5.649  0.00  0.00     0.000 A 
ATOM     14  C   UNL d   1      13.696  13.264  -5.598  0.00  0.00     0.001 A 
ENDBRANCH   8   9
ENDBRANCH   7   8
ENDBRANCH   4   7
BRANCH   3  15
ATOM     15  C   UNL d   1      14.419  11.844  -1.443  0.00  0.00     0.101 A 
ATOM     16  N   UNL d   1      15.229  11.921  -1.447  0.00  0.00    -0.242 NA
ATOM     17  C   UNL d   1      15.642  11.936  -0.740  0.00  0.00     0.099 A 
ATOM     18  C   UNL d   1      15.231  11.873  -0.020  0.00  0.00     0.021 A 
ATOM     19  C   UNL d   1      14.416  11.796  -0.021  0.00  0.00     0.003 A 
ATOM     20  C   UNL d   1      13.995  11.780  -0.731  0.00  0.00     0.021 A 
ENDBRANCH   3  15
TORSDOF 4
ENDMDL
