MODEL 1
REMARK VINA RESULT:      37.3      0.000      0.000
REMARK  4 active torsions:
REMARK  status: ('A' for Active; 'I' for Inactive)
REMARK    1  A    between atoms: N_2  and  C_1 
REMARK       I    between atoms: C_3  and  N_2 
REMARK    2  A    between atoms: C_6  and  C_3 
REMARK    3  A    between atoms: C_14  and  C_7 
REMARK    4  A    between atoms: C_15  and  C_14 
ROOT
ATOM      1  C   UNL d   1     -58.090 -98.764 -44.757  0.00  0.00     0.197 A 
ATOM      2  N   UNL d   1     -58.605 -98.769 -44.183  0.00  0.00    -0.219 NA
ATOM      3  S   UNL d   1     -58.499 -98.768 -45.469  0.00  0.00    -0.047 SA
ATOM      4  C   UNL d   1     -59.294 -98.776 -45.302  0.00  0.00     0.051 A 
ATOM      5  C   UNL d   1     -59.363 -98.777 -44.486  0.00  0.00     0.108 A 
ENDROOT
BRANCH   1   6
ATOM      6  N   UNL d   1     -57.247 -98.755 -44.608  0.00  0.00    -0.182 NA
ATOM      7  C   UNL d   1     -56.839 -99.469 -44.587  0.00  0.00     0.287 C 
ATOM      8  O   UNL d   1     -57.241-100.182 -44.708  0.00  0.00    -0.265 OA
BRANCH   7   9
ATOM      9  C   UNL d   1     -56.047 -99.459 -44.446  0.00  0.00     0.087 A 
ATOM     10  S   UNL d   1     -55.545 -98.802 -44.379  0.00  0.00    -0.082 SA
ATOM     11  C   UNL d   1     -54.816 -99.058 -44.241  0.00  0.00     0.036 A 
ATOM     12  C   UNL d   1     -54.846 -99.914 -44.217  0.00  0.00     0.008 A 
ATOM     13  C   UNL d   1     -55.619-100.111 -44.348  0.00  0.00     0.012 A 
ENDBRANCH   7   9
ENDBRANCH   1   6
BRANCH   4  14
ATOM     14  C   UNL d   1     -59.960 -98.783 -45.762  0.00  0.00     0.008 C 
BRANCH  14  15
ATOM     15  C   UNL d   1     -59.960 -99.183 -46.497  0.00  0.00     0.001 A 
ATOM     16  C   UNL d   1     -59.961-100.018 -46.516  0.00  0.00     0.002 A 
ATOM     17  C   UNL d   1     -59.961-100.425 -47.245  0.00  0.00     0.030 A 
ATOM     18  C   UNL d   1     -59.960-100.003 -47.946  0.00  0.00     0.140 A 
ATOM     19  C   UNL d   1     -59.960 -99.149 -47.940  0.00  0.00     0.030 A 
ATOM     20  F   UNL d   1     -59.961-100.295 -48.655  0.00  0.00    -0.204 F 
ATOM     21  C   UNL d   1     -59.959 -98.758 -47.207  0.00  0.00     0.002 A 
ENDBRANCH  14  15
ENDBRANCH   4  14
TORSDOF 4
ENDMDL
