MODEL 1
REMARK VINA RESULT:       7.0      0.000      0.000
REMARK  5 active torsions:
REMARK  status: ('A' for Active; 'I' for Inactive)
REMARK    1  A    between atoms: C_6  and  N_1 
REMARK    2  A    between atoms: O_9  and  C_6 
REMARK    3  A    between atoms: C_8  and  O_9 
REMARK    4  A    between atoms: C_12  and  C_8 
REMARK    5  A    between atoms: C_14  and  C_12 
ROOT
ATOM      1  N   UNL d   1      46.078 -17.627  43.933  0.00  0.00    -0.150 N 
ATOM      2  N   UNL d   1      46.177 -17.378  43.152  0.00  0.00    -0.055 NA
ATOM      3  C   UNL d   1      46.146 -18.428  44.135  0.00  0.00     0.285 A 
ATOM      4  N   UNL d   1      46.343 -17.929  42.567  0.00  0.00    -0.130 NA
ATOM      5  C   UNL d   1      46.313 -18.970  43.535  0.00  0.00     0.077 A 
ATOM      6  C   UNL d   1      46.411 -18.721  42.754  0.00  0.00     0.109 A 
ATOM      7  O   UNL d   1      46.048 -18.674  44.908  0.00  0.00    -0.265 OA
ATOM      8  C   UNL d   1      46.382 -19.768  43.726  0.00  0.00     0.006 A 
ATOM      9  C   UNL d   1      46.577 -19.273  42.169  0.00  0.00     0.021 A 
ATOM     10  C   UNL d   1      46.548 -20.318  43.140  0.00  0.00     0.000 A 
ATOM     11  C   UNL d   1      46.646 -20.069  42.355  0.00  0.00     0.002 A 
ENDROOT
BRANCH   1  12
ATOM     12  C   UNL d   1      45.911 -17.073  44.524  0.00  0.00     0.233 C 
BRANCH  12  13
ATOM     13  O   UNL d   1      46.058 -16.273  44.393  0.00  0.00    -0.251 OA
BRANCH  13  14
ATOM     14  C   UNL d   1      45.594 -15.705  44.767  0.00  0.00     0.302 C 
ATOM     15  O   UNL d   1      44.808 -15.870  44.954  0.00  0.00    -0.259 OA
BRANCH  14  16
ATOM     16  C   UNL d   1      45.918 -14.971  44.955  0.00  0.00     0.069 C 
BRANCH  16  17
ATOM     17  C   UNL d   1      45.653 -14.341  44.607  0.00  0.00     0.005 A 
ATOM     18  C   UNL d   1      44.860 -14.279  44.385  0.00  0.00     0.000 A 
ATOM     19  C   UNL d   1      44.572 -13.597  44.008  0.00  0.00     0.000 A 
ATOM     20  C   UNL d   1      45.091 -12.965  43.851  0.00  0.00     0.000 A 
ATOM     21  C   UNL d   1      45.889 -13.018  44.071  0.00  0.00     0.000 A 
ATOM     22  C   UNL d   1      46.180 -13.705  44.450  0.00  0.00     0.000 A 
ENDBRANCH  16  17
ENDBRANCH  14  16
ENDBRANCH  13  14
ENDBRANCH  12  13
ENDBRANCH   1  12
TORSDOF 5
ENDMDL
MODEL 2
REMARK VINA RESULT:       9.9      1.183      5.022
REMARK  5 active torsions:
REMARK  status: ('A' for Active; 'I' for Inactive)
REMARK    1  A    between atoms: C_6  and  N_1 
REMARK    2  A    between atoms: O_9  and  C_6 
REMARK    3  A    between atoms: C_8  and  O_9 
REMARK    4  A    between atoms: C_12  and  C_8 
REMARK    5  A    between atoms: C_14  and  C_12 
ROOT
ATOM      1  N   UNL d   1      45.768 -15.446  44.669  0.00  0.00    -0.150 N 
ATOM      2  N   UNL d   1      46.507 -15.141  44.871  0.00  0.00    -0.055 NA
ATOM      3  C   UNL d   1      45.154 -14.946  44.423  0.00  0.00     0.285 A 
ATOM      4  N   UNL d   1      46.640 -14.332  44.829  0.00  0.00    -0.130 NA
ATOM      5  C   UNL d   1      45.304 -14.135  44.385  0.00  0.00     0.077 A 
ATOM      6  C   UNL d   1      46.043 -13.829  44.587  0.00  0.00     0.109 A 
ATOM      7  O   UNL d   1      44.422 -15.248  44.223  0.00  0.00    -0.265 OA
ATOM      8  C   UNL d   1      44.701 -13.629  44.141  0.00  0.00     0.006 A 
ATOM      9  C   UNL d   1      46.176 -13.020  44.544  0.00  0.00     0.021 A 
ATOM     10  C   UNL d   1      44.834 -12.820  44.099  0.00  0.00     0.000 A 
ATOM     11  C   UNL d   1      45.577 -12.513  44.302  0.00  0.00     0.002 A 
ENDROOT
BRANCH   1  12
ATOM     12  C   UNL d   1      45.632 -16.261  44.711  0.00  0.00     0.233 C 
BRANCH  12  13
ATOM     13  O   UNL d   1      46.151 -16.785  44.343  0.00  0.00    -0.251 OA
BRANCH  13  14
ATOM     14  C   UNL d   1      46.036 -17.596  44.418  0.00  0.00     0.302 C 
ATOM     15  O   UNL d   1      45.311 -17.889  44.683  0.00  0.00    -0.259 OA
BRANCH  14  16
ATOM     16  C   UNL d   1      46.646 -18.116  44.228  0.00  0.00     0.069 C 
BRANCH  16  17
ATOM     17  C   UNL d   1      46.518 -18.683  43.727  0.00  0.00     0.005 A 
ATOM     18  C   UNL d   1      46.447 -18.528  42.920  0.00  0.00     0.000 A 
ATOM     19  C   UNL d   1      46.309 -19.141  42.376  0.00  0.00     0.000 A 
ATOM     20  C   UNL d   1      46.240 -19.924  42.650  0.00  0.00     0.000 A 
ATOM     21  C   UNL d   1      46.310 -20.089  43.459  0.00  0.00     0.000 A 
ATOM     22  C   UNL d   1      46.449 -19.472  44.008  0.00  0.00     0.000 A 
ENDBRANCH  16  17
ENDBRANCH  14  16
ENDBRANCH  13  14
ENDBRANCH  12  13
ENDBRANCH   1  12
TORSDOF 5
ENDMDL
