MODEL 1
REMARK VINA RESULT:      -3.8      0.000      0.000
REMARK  4 active torsions:
REMARK  status: ('A' for Active; 'I' for Inactive)
REMARK    1  A    between atoms: N_2  and  S_1 
REMARK    2  A    between atoms: C_6  and  S_1 
REMARK    3  A    between atoms: O_17  and  C_12 
REMARK    4  A    between atoms: C_19  and  O_17 
ROOT
ATOM      1  S   UNL d   1      58.184   0.017  30.378  0.00  0.00     0.271 S 
ATOM      2  O   UNL d   1      57.846  -0.651  30.018  0.00  0.00    -0.200 OA
ATOM      3  O   UNL d   1      58.520   0.682  30.735  0.00  0.00    -0.200 OA
ENDROOT
BRANCH   1   4
ATOM      4  N   UNL d   1      58.674   0.126  29.715  0.00  0.00    -0.232 N 
ATOM      5  C   UNL d   1      58.441   0.432  28.983  0.00  0.00     0.075 A 
ATOM      6  C   UNL d   1      59.098   0.444  28.486  0.00  0.00     0.020 A 
ATOM      7  C   UNL d   1      57.677   0.681  28.787  0.00  0.00     0.020 C 
ATOM      8  C   UNL d   1      59.743   0.144  28.915  0.00  0.00     0.018 A 
ATOM      9  C   UNL d   1      59.477  -0.050  29.671  0.00  0.00     0.075 A 
ATOM     10  C   UNL d   1      60.533   0.024  28.712  0.00  0.00     0.002 A 
ATOM     11  C   UNL d   1      60.003  -0.366  30.227  0.00  0.00     0.018 A 
ATOM     12  C   UNL d   1      60.790  -0.485  30.024  0.00  0.00     0.002 A 
ATOM     13  C   UNL d   1      61.058  -0.292  29.269  0.00  0.00     0.000 A 
ENDBRANCH   1   4
BRANCH   1  14
ATOM     14  C   UNL d   1      57.697  -0.091  31.036  0.00  0.00     0.104 A 
ATOM     15  C   UNL d   1      57.628   0.512  31.601  0.00  0.00     0.015 A 
ATOM     16  C   UNL d   1      57.143   0.404  32.256  0.00  0.00     0.025 A 
ATOM     17  C   UNL d   1      56.721  -0.307  32.354  0.00  0.00     0.100 A 
ATOM     18  C   UNL d   1      56.796  -0.904  31.784  0.00  0.00     0.025 A 
ATOM     19  C   UNL d   1      57.281  -0.796  31.129  0.00  0.00     0.015 A 
BRANCH  17  20
ATOM     20  O   UNL d   1      56.236  -0.415  33.009  0.00  0.00    -0.305 OA
BRANCH  20  21
ATOM     21  C   UNL d   1      55.581   0.067  33.119  0.00  0.00     0.123 C 
ATOM     22  C   UNL d   1      55.023  -0.121  33.693  0.00  0.00     0.029 C 
ENDBRANCH  20  21
ENDBRANCH  17  20
ENDBRANCH   1  14
TORSDOF 4
ENDMDL
MODEL 2
REMARK VINA RESULT:      -2.8      1.652      4.879
REMARK  4 active torsions:
REMARK  status: ('A' for Active; 'I' for Inactive)
REMARK    1  A    between atoms: N_2  and  S_1 
REMARK    2  A    between atoms: C_6  and  S_1 
REMARK    3  A    between atoms: O_17  and  C_12 
REMARK    4  A    between atoms: C_19  and  O_17 
ROOT
ATOM      1  S   UNL d   1      56.924   0.092  32.569  0.00  0.00     0.271 S 
ATOM      2  O   UNL d   1      57.406  -0.501  32.894  0.00  0.00    -0.200 OA
ATOM      3  O   UNL d   1      56.445   0.682  32.245  0.00  0.00    -0.200 OA
ENDROOT
BRANCH   1   4
ATOM      4  N   UNL d   1      56.650   0.287  33.329  0.00  0.00    -0.232 N 
ATOM      5  C   UNL d   1      57.113   0.556  33.958  0.00  0.00     0.075 A 
ATOM      6  C   UNL d   1      56.622   0.682  34.607  0.00  0.00     0.020 A 
ATOM      7  C   UNL d   1      57.931   0.678  33.936  0.00  0.00     0.020 C 
ATOM      8  C   UNL d   1      55.847   0.488  34.377  0.00  0.00     0.018 A 
ATOM      9  C   UNL d   1      55.870   0.245  33.589  0.00  0.00     0.075 A 
ATOM     10  C   UNL d   1      55.131   0.502  34.783  0.00  0.00     0.002 A 
ATOM     11  C   UNL d   1      55.173   0.015  33.206  0.00  0.00     0.018 A 
ATOM     12  C   UNL d   1      54.460   0.030  33.612  0.00  0.00     0.002 A 
ATOM     13  C   UNL d   1      54.434   0.272  34.399  0.00  0.00     0.000 A 
ENDBRANCH   1   4
BRANCH   1  14
ATOM     14  C   UNL d   1      57.197  -0.101  31.813  0.00  0.00     0.104 A 
ATOM     15  C   UNL d   1      57.513   0.490  31.326  0.00  0.00     0.015 A 
ATOM     16  C   UNL d   1      57.785   0.297  30.574  0.00  0.00     0.025 A 
ATOM     17  C   UNL d   1      57.743  -0.488  30.301  0.00  0.00     0.100 A 
ATOM     18  C   UNL d   1      57.426  -1.072  30.795  0.00  0.00     0.025 A 
ATOM     19  C   UNL d   1      57.154  -0.880  31.547  0.00  0.00     0.015 A 
BRANCH  17  20
ATOM     20  O   UNL d   1      58.015  -0.680  29.549  0.00  0.00    -0.305 OA
BRANCH  20  21
ATOM     21  C   UNL d   1      58.789  -0.929  29.443  0.00  0.00     0.123 C 
ATOM     22  C   UNL d   1      58.988  -1.393  28.793  0.00  0.00     0.029 C 
ENDBRANCH  20  21
ENDBRANCH  17  20
ENDBRANCH   1  14
TORSDOF 4
ENDMDL
