MODEL 1
REMARK VINA RESULT:      -7.9      0.000      0.000
REMARK  0 active torsions:
REMARK  status: ('A' for Active; 'I' for Inactive)
ROOT
ATOM      1  C   UNL d   1     -47.095  12.856  23.205  0.00  0.00     0.094 A 
ATOM      2  C   UNL d   1     -47.012  13.631  22.933  0.00  0.00     0.143 A 
ATOM      3  S   UNL d   1     -47.680  14.085  22.770  0.00  0.00    -0.055 SA
ATOM      4  C   UNL d   1     -47.847  12.537  23.314  0.00  0.00     0.013 A 
ATOM      5  C   UNL d   1     -48.433  13.765  22.879  0.00  0.00     0.086 A 
ATOM      6  C   UNL d   1     -48.517  12.990  23.152  0.00  0.00     0.017 A 
ATOM      7  C   UNL d   1     -46.425  12.403  23.368  0.00  0.00     0.103 C 
ATOM      8  N   UNL d   1     -45.761  11.950  23.530  0.00  0.00    -0.191 NA
ATOM      9  S   UNL d   1     -49.108  14.220  22.716  0.00  0.00    -0.071 SA
ATOM     10  N   UNL d   1     -46.265  13.952  22.823  0.00  0.00    -0.140 N 
ATOM     11  C   UNL d   1     -47.930  11.763  23.586  0.00  0.00     0.001 A 
ATOM     12  C   UNL d   1     -49.270  12.671  23.261  0.00  0.00     0.001 A 
ATOM     13  C   UNL d   1     -48.683  11.443  23.695  0.00  0.00     0.000 A 
ATOM     14  C   UNL d   1     -49.353  11.897  23.532  0.00  0.00     0.000 A 
ENDROOT
TORSDOF 0
ENDMDL
MODEL 2
REMARK VINA RESULT:      -7.9      1.054      2.068
REMARK  0 active torsions:
REMARK  status: ('A' for Active; 'I' for Inactive)
ROOT
ATOM      1  C   UNL d   1     -47.243  12.327  23.378  0.00  0.00     0.094 A 
ATOM      2  C   UNL d   1     -47.952  11.913  23.458  0.00  0.00     0.143 A 
ATOM      3  S   UNL d   1     -48.669  12.288  23.298  0.00  0.00    -0.055 SA
ATOM      4  C   UNL d   1     -47.250  13.116  23.139  0.00  0.00     0.013 A 
ATOM      5  C   UNL d   1     -48.676  13.078  23.058  0.00  0.00     0.086 A 
ATOM      6  C   UNL d   1     -47.967  13.492  22.978  0.00  0.00     0.017 A 
ATOM      7  C   UNL d   1     -46.526  11.951  23.539  0.00  0.00     0.103 C 
ATOM      8  N   UNL d   1     -45.813  11.579  23.697  0.00  0.00    -0.191 NA
ATOM      9  S   UNL d   1     -49.396  13.458  22.896  0.00  0.00    -0.071 SA
ATOM     10  N   UNL d   1     -47.948  11.128  23.696  0.00  0.00    -0.140 N 
ATOM     11  C   UNL d   1     -46.542  13.529  23.059  0.00  0.00     0.001 A 
ATOM     12  C   UNL d   1     -47.975  14.282  22.738  0.00  0.00     0.001 A 
ATOM     13  C   UNL d   1     -46.549  14.319  22.819  0.00  0.00     0.000 A 
ATOM     14  C   UNL d   1     -47.267  14.695  22.659  0.00  0.00     0.000 A 
ENDROOT
TORSDOF 0
ENDMDL
MODEL 3
REMARK VINA RESULT:      -7.7      0.821      1.348
REMARK  0 active torsions:
REMARK  status: ('A' for Active; 'I' for Inactive)
ROOT
ATOM      1  C   UNL d   1     -47.377  13.541  22.991  0.00  0.00     0.094 A 
ATOM      2  C   UNL d   1     -47.995  14.053  22.798  0.00  0.00     0.143 A 
ATOM      3  S   UNL d   1     -48.776  13.791  22.841  0.00  0.00    -0.055 SA
ATOM      4  C   UNL d   1     -47.540  12.768  23.227  0.00  0.00     0.013 A 
ATOM      5  C   UNL d   1     -48.939  13.017  23.077  0.00  0.00     0.086 A 
ATOM      6  C   UNL d   1     -48.321  12.505  23.270  0.00  0.00     0.017 A 
ATOM      7  C   UNL d   1     -46.596  13.804  22.948  0.00  0.00     0.103 C 
ATOM      8  N   UNL d   1     -45.819  14.063  22.906  0.00  0.00    -0.191 NA
ATOM      9  S   UNL d   1     -49.724  12.751  23.121  0.00  0.00    -0.071 SA
ATOM     10  N   UNL d   1     -47.835  14.823  22.564  0.00  0.00    -0.140 N 
ATOM     11  C   UNL d   1     -46.923  12.257  23.419  0.00  0.00     0.001 A 
ATOM     12  C   UNL d   1     -48.485  11.732  23.505  0.00  0.00     0.001 A 
ATOM     13  C   UNL d   1     -47.086  11.483  23.655  0.00  0.00     0.000 A 
ATOM     14  C   UNL d   1     -47.868  11.221  23.698  0.00  0.00     0.000 A 
ENDROOT
TORSDOF 0
ENDMDL
MODEL 4
REMARK VINA RESULT:      -7.6      1.341      2.282
REMARK  0 active torsions:
REMARK  status: ('A' for Active; 'I' for Inactive)
ROOT
ATOM      1  C   UNL d   1     -48.144  12.309  23.354  0.00  0.00     0.094 A 
ATOM      2  C   UNL d   1     -47.356  12.084  23.449  0.00  0.00     0.143 A 
ATOM      3  S   UNL d   1     -46.752  12.624  23.294  0.00  0.00    -0.055 SA
ATOM      4  C   UNL d   1     -48.328  13.072  23.104  0.00  0.00     0.013 A 
ATOM      5  C   UNL d   1     -46.936  13.389  23.043  0.00  0.00     0.086 A 
ATOM      6  C   UNL d   1     -47.724  13.613  22.948  0.00  0.00     0.017 A 
ATOM      7  C   UNL d   1     -48.748  11.768  23.510  0.00  0.00     0.103 C 
ATOM      8  N   UNL d   1     -49.349  11.233  23.664  0.00  0.00    -0.191 NA
ATOM      9  S   UNL d   1     -46.330  13.934  22.886  0.00  0.00    -0.071 SA
ATOM     10  N   UNL d   1     -47.170  11.325  23.698  0.00  0.00    -0.140 N 
ATOM     11  C   UNL d   1     -49.115  13.296  23.009  0.00  0.00     0.001 A 
ATOM     12  C   UNL d   1     -47.908  14.377  22.697  0.00  0.00     0.001 A 
ATOM     13  C   UNL d   1     -49.300  14.061  22.758  0.00  0.00     0.000 A 
ATOM     14  C   UNL d   1     -48.695  14.601  22.603  0.00  0.00     0.000 A 
ENDROOT
TORSDOF 0
ENDMDL
MODEL 5
REMARK VINA RESULT:      -7.6      1.173      2.003
REMARK  0 active torsions:
REMARK  status: ('A' for Active; 'I' for Inactive)
ROOT
ATOM      1  C   UNL d   1     -47.790  13.700  22.928  0.00  0.00     0.094 A 
ATOM      2  C   UNL d   1     -46.975  13.612  23.021  0.00  0.00     0.143 A 
ATOM      3  S   UNL d   1     -46.664  12.892  23.277  0.00  0.00    -0.055 SA
ATOM      4  C   UNL d   1     -48.294  13.068  23.090  0.00  0.00     0.013 A 
ATOM      5  C   UNL d   1     -47.169  12.260  23.440  0.00  0.00     0.086 A 
ATOM      6  C   UNL d   1     -47.984  12.348  23.347  0.00  0.00     0.017 A 
ATOM      7  C   UNL d   1     -48.100  14.421  22.672  0.00  0.00     0.103 C 
ATOM      8  N   UNL d   1     -48.410  15.135  22.417  0.00  0.00    -0.191 NA
ATOM      9  S   UNL d   1     -46.859  11.534  23.698  0.00  0.00    -0.071 SA
ATOM     10  N   UNL d   1     -46.471  14.239  22.860  0.00  0.00    -0.140 N 
ATOM     11  C   UNL d   1     -49.108  13.156  22.997  0.00  0.00     0.001 A 
ATOM     12  C   UNL d   1     -48.488  11.715  23.510  0.00  0.00     0.001 A 
ATOM     13  C   UNL d   1     -49.613  12.523  23.160  0.00  0.00     0.000 A 
ATOM     14  C   UNL d   1     -49.302  11.803  23.416  0.00  0.00     0.000 A 
ENDROOT
TORSDOF 0
ENDMDL
MODEL 6
REMARK VINA RESULT:      -7.6      1.729      2.853
REMARK  0 active torsions:
REMARK  status: ('A' for Active; 'I' for Inactive)
ROOT
ATOM      1  C   UNL d   1     -48.517  13.837  22.918  0.00  0.00     0.094 A 
ATOM      2  C   UNL d   1     -49.069  13.249  23.094  0.00  0.00     0.143 A 
ATOM      3  S   UNL d   1     -48.815  12.490  23.291  0.00  0.00    -0.055 SA
ATOM      4  C   UNL d   1     -47.711  13.664  22.939  0.00  0.00     0.013 A 
ATOM      5  C   UNL d   1     -48.008  12.317  23.313  0.00  0.00     0.086 A 
ATOM      6  C   UNL d   1     -47.456  12.905  23.137  0.00  0.00     0.017 A 
ATOM      7  C   UNL d   1     -48.772  14.596  22.721  0.00  0.00     0.103 C 
ATOM      8  N   UNL d   1     -49.024  15.351  22.524  0.00  0.00    -0.191 NA
ATOM      9  S   UNL d   1     -47.749  11.554  23.511  0.00  0.00    -0.071 SA
ATOM     10  N   UNL d   1     -49.872  13.417  23.073  0.00  0.00    -0.140 N 
ATOM     11  C   UNL d   1     -47.160  14.251  22.764  0.00  0.00     0.001 A 
ATOM     12  C   UNL d   1     -46.649  12.732  23.158  0.00  0.00     0.001 A 
ATOM     13  C   UNL d   1     -46.352  14.079  22.785  0.00  0.00     0.000 A 
ATOM     14  C   UNL d   1     -46.098  13.319  22.983  0.00  0.00     0.000 A 
ENDROOT
TORSDOF 0
ENDMDL
MODEL 7
REMARK VINA RESULT:      -7.1      1.211      2.058
REMARK  0 active torsions:
REMARK  status: ('A' for Active; 'I' for Inactive)
ROOT
ATOM      1  C   UNL d   1     -46.493  12.744  22.922  0.00  0.00     0.094 A 
ATOM      2  C   UNL d   1     -46.643  12.001  23.246  0.00  0.00     0.143 A 
ATOM      3  S   UNL d   1     -47.403  11.809  23.505  0.00  0.00    -0.055 SA
ATOM      4  C   UNL d   1     -47.102  13.296  22.855  0.00  0.00     0.013 A 
ATOM      5  C   UNL d   1     -48.013  12.362  23.438  0.00  0.00     0.086 A 
ATOM      6  C   UNL d   1     -47.862  13.105  23.113  0.00  0.00     0.017 A 
ATOM      7  C   UNL d   1     -45.732  12.934  22.663  0.00  0.00     0.103 C 
ATOM      8  N   UNL d   1     -44.978  13.125  22.407  0.00  0.00    -0.191 NA
ATOM      9  S   UNL d   1     -48.778  12.172  23.697  0.00  0.00    -0.071 SA
ATOM     10  N   UNL d   1     -46.040  11.449  23.314  0.00  0.00    -0.140 N 
ATOM     11  C   UNL d   1     -46.951  14.038  22.531  0.00  0.00     0.001 A 
ATOM     12  C   UNL d   1     -48.472  13.657  23.047  0.00  0.00     0.001 A 
ATOM     13  C   UNL d   1     -47.561  14.591  22.464  0.00  0.00     0.000 A 
ATOM     14  C   UNL d   1     -48.321  14.400  22.723  0.00  0.00     0.000 A 
ENDROOT
TORSDOF 0
ENDMDL
MODEL 8
REMARK VINA RESULT:      -6.8      1.930      2.713
REMARK  0 active torsions:
REMARK  status: ('A' for Active; 'I' for Inactive)
ROOT
ATOM      1  C   UNL d   1     -48.552  13.965  22.300  0.00  0.00     0.094 A 
ATOM      2  C   UNL d   1     -48.706  13.341  21.782  0.00  0.00     0.143 A 
ATOM      3  S   UNL d   1     -49.477  13.202  21.522  0.00  0.00    -0.055 SA
ATOM      4  C   UNL d   1     -49.168  14.449  22.558  0.00  0.00     0.013 A 
ATOM      5  C   UNL d   1     -50.093  13.687  21.780  0.00  0.00     0.086 A 
ATOM      6  C   UNL d   1     -49.939  14.310  22.298  0.00  0.00     0.017 A 
ATOM      7  C   UNL d   1     -47.781  14.103  22.560  0.00  0.00     0.103 C 
ATOM      8  N   UNL d   1     -47.016  14.242  22.819  0.00  0.00    -0.191 NA
ATOM      9  S   UNL d   1     -50.869  13.549  21.519  0.00  0.00    -0.071 SA
ATOM     10  N   UNL d   1     -48.096  12.858  21.524  0.00  0.00    -0.140 N 
ATOM     11  C   UNL d   1     -49.013  15.071  23.075  0.00  0.00     0.001 A 
ATOM     12  C   UNL d   1     -50.555  14.795  22.555  0.00  0.00     0.001 A 
ATOM     13  C   UNL d   1     -49.630  15.556  23.333  0.00  0.00     0.000 A 
ATOM     14  C   UNL d   1     -50.401  15.417  23.073  0.00  0.00     0.000 A 
ENDROOT
TORSDOF 0
ENDMDL
MODEL 9
REMARK VINA RESULT:      -5.8      9.699     10.771
REMARK  0 active torsions:
REMARK  status: ('A' for Active; 'I' for Inactive)
ROOT
ATOM      1  C   UNL d   1     -39.934  14.553  17.490  0.00  0.00     0.094 A 
ATOM      2  C   UNL d   1     -40.034  15.319  17.199  0.00  0.00     0.143 A 
ATOM      3  S   UNL d   1     -39.473  15.644  16.691  0.00  0.00    -0.055 SA
ATOM      4  C   UNL d   1     -39.271  14.114  17.273  0.00  0.00     0.013 A 
ATOM      5  C   UNL d   1     -38.809  15.204  16.473  0.00  0.00     0.086 A 
ATOM      6  C   UNL d   1     -38.708  14.439  16.764  0.00  0.00     0.017 A 
ATOM      7  C   UNL d   1     -40.496  14.229  17.999  0.00  0.00     0.103 C 
ATOM      8  N   UNL d   1     -41.054  13.904  18.504  0.00  0.00    -0.191 NA
ATOM      9  S   UNL d   1     -38.242  15.529  15.962  0.00  0.00    -0.071 SA
ATOM     10  N   UNL d   1     -40.693  15.759  17.413  0.00  0.00    -0.140 N 
ATOM     11  C   UNL d   1     -39.170  13.350  17.564  0.00  0.00     0.001 A 
ATOM     12  C   UNL d   1     -38.044  13.999  16.547  0.00  0.00     0.001 A 
ATOM     13  C   UNL d   1     -38.506  12.909  17.347  0.00  0.00     0.000 A 
ATOM     14  C   UNL d   1     -37.943  13.235  16.838  0.00  0.00     0.000 A 
ENDROOT
TORSDOF 0
ENDMDL
