MODEL 1
REMARK VINA RESULT:      -7.8      0.000      0.000
REMARK  3 active torsions:
REMARK  status: ('A' for Active; 'I' for Inactive)
REMARK    1  A    between atoms: N_3  and  C_1 
REMARK    2  A    between atoms: O_4  and  C_2 
REMARK    3  A    between atoms: C_7  and  O_4 
ROOT
ATOM      1  C   UNL d   1      51.733  33.993  52.855  0.00  0.00     0.205 A 
ATOM      2  C   UNL d   1      52.049  33.348  53.231  0.00  0.00     0.209 A 
ATOM      3  N   UNL d   1      51.556  32.811  53.585  0.00  0.00    -0.198 NA
ATOM      4  C   UNL d   1      50.914  34.107  52.832  0.00  0.00     0.211 A 
ATOM      5  N   UNL d   1      50.422  33.571  53.186  0.00  0.00    -0.202 NA
ATOM      6  C   UNL d   1      50.730  32.929  53.560  0.00  0.00     0.202 A 
ATOM      7  N   UNL d   1      50.583  34.762  52.451  0.00  0.00    -0.125 N 
ENDROOT
BRANCH   2   8
ATOM      8  O   UNL d   1      52.881  33.209  53.269  0.00  0.00    -0.288 OA
BRANCH   8   9
ATOM      9  C   UNL d   1      53.155  32.445  53.434  0.00  0.00     0.102 A 
ATOM     10  C   UNL d   1      53.683  32.324  54.046  0.00  0.00     0.023 A 
ATOM     11  C   UNL d   1      53.953  31.558  54.207  0.00  0.00     0.002 A 
ATOM     12  C   UNL d   1      53.955  32.929  54.508  0.00  0.00     0.002 C 
ATOM     13  C   UNL d   1      53.695  30.918  53.754  0.00  0.00     0.000 A 
ATOM     14  C   UNL d   1      53.163  31.047  53.138  0.00  0.00     0.002 A 
ATOM     15  C   UNL d   1      52.880  31.820  52.964  0.00  0.00     0.025 A 
ATOM     16  C   UNL d   1      52.887  30.395  52.662  0.00  0.00     0.000 C 
ENDBRANCH   8   9
ENDBRANCH   2   8
BRANCH   1  17
ATOM     17  N   UNL d   1      52.231  34.538  52.495  0.00  0.00    -0.107 N 
ATOM     18  O   UNL d   1      52.361  34.495  51.708  0.00  0.00    -0.531 OA
ATOM     19  O   UNL d   1      52.587  35.116  52.948  0.00  0.00    -0.531 OA
ENDBRANCH   1  17
TORSDOF 3
ENDMDL
MODEL 2
REMARK VINA RESULT:      -7.7      2.131      3.181
REMARK  3 active torsions:
REMARK  status: ('A' for Active; 'I' for Inactive)
REMARK    1  A    between atoms: N_3  and  C_1 
REMARK    2  A    between atoms: O_4  and  C_2 
REMARK    3  A    between atoms: C_7  and  O_4 
ROOT
ATOM      1  C   UNL d   1      54.450  33.335  54.623  0.00  0.00     0.205 A 
ATOM      2  C   UNL d   1      54.110  32.917  54.017  0.00  0.00     0.209 A 
ATOM      3  N   UNL d   1      54.542  32.762  53.349  0.00  0.00    -0.198 NA
ATOM      4  C   UNL d   1      55.231  33.601  54.565  0.00  0.00     0.211 A 
ATOM      5  N   UNL d   1      55.662  33.446  53.898  0.00  0.00    -0.202 NA
ATOM      6  C   UNL d   1      55.330  33.033  53.293  0.00  0.00     0.202 A 
ATOM      7  N   UNL d   1      55.585  34.028  55.179  0.00  0.00    -0.125 N 
ENDROOT
BRANCH   2   8
ATOM      8  O   UNL d   1      53.316  32.634  54.052  0.00  0.00    -0.288 OA
BRANCH   8   9
ATOM      9  C   UNL d   1      53.121  31.932  53.659  0.00  0.00     0.102 A 
ATOM     10  C   UNL d   1      52.555  31.937  53.069  0.00  0.00     0.023 A 
ATOM     11  C   UNL d   1      52.364  31.232  52.680  0.00  0.00     0.002 A 
ATOM     12  C   UNL d   1      52.169  32.612  52.847  0.00  0.00     0.002 C 
ATOM     13  C   UNL d   1      52.739  30.525  52.882  0.00  0.00     0.000 A 
ATOM     14  C   UNL d   1      53.310  30.527  53.478  0.00  0.00     0.002 A 
ATOM     15  C   UNL d   1      53.513  31.236  53.881  0.00  0.00     0.025 A 
ATOM     16  C   UNL d   1      53.706  29.804  53.698  0.00  0.00     0.000 C 
ENDBRANCH   8   9
ENDBRANCH   2   8
BRANCH   1  17
ATOM     17  N   UNL d   1      54.014  33.493  55.302  0.00  0.00    -0.107 N 
ATOM     18  O   UNL d   1      54.025  32.973  55.909  0.00  0.00    -0.531 OA
ATOM     19  O   UNL d   1      53.576  34.180  55.345  0.00  0.00    -0.531 OA
ENDBRANCH   1  17
TORSDOF 3
ENDMDL
MODEL 3
REMARK VINA RESULT:      -7.7      1.923      3.393
REMARK  3 active torsions:
REMARK  status: ('A' for Active; 'I' for Inactive)
REMARK    1  A    between atoms: N_3  and  C_1 
REMARK    2  A    between atoms: O_4  and  C_2 
REMARK    3  A    between atoms: C_7  and  O_4 
ROOT
ATOM      1  C   UNL d   1      53.941  33.397  54.277  0.00  0.00     0.205 A 
ATOM      2  C   UNL d   1      53.355  33.803  53.891  0.00  0.00     0.209 A 
ATOM      3  N   UNL d   1      53.036  34.464  54.234  0.00  0.00    -0.198 NA
ATOM      4  C   UNL d   1      54.214  33.652  55.014  0.00  0.00     0.211 A 
ATOM      5  N   UNL d   1      53.896  34.312  55.357  0.00  0.00    -0.202 NA
ATOM      6  C   UNL d   1      53.314  34.719  54.979  0.00  0.00     0.202 A 
ATOM      7  N   UNL d   1      54.812  33.244  55.415  0.00  0.00    -0.125 N 
ENDROOT
BRANCH   2   8
ATOM      8  O   UNL d   1      53.059  33.563  53.138  0.00  0.00    -0.288 OA
BRANCH   8   9
ATOM      9  C   UNL d   1      52.275  33.741  52.937  0.00  0.00     0.102 A 
ATOM     10  C   UNL d   1      52.118  34.244  52.312  0.00  0.00     0.023 A 
ATOM     11  C   UNL d   1      51.332  34.418  52.116  0.00  0.00     0.002 A 
ATOM     12  C   UNL d   1      52.705  34.582  51.872  0.00  0.00     0.002 C 
ATOM     13  C   UNL d   1      50.710  34.089  52.546  0.00  0.00     0.000 A 
ATOM     14  C   UNL d   1      50.876  33.582  53.176  0.00  0.00     0.002 A 
ATOM     15  C   UNL d   1      51.668  33.397  53.386  0.00  0.00     0.025 A 
ATOM     16  C   UNL d   1      50.242  33.235  53.630  0.00  0.00     0.000 C 
ENDBRANCH   8   9
ENDBRANCH   2   8
BRANCH   1  17
ATOM     17  N   UNL d   1      54.266  32.726  53.931  0.00  0.00    -0.107 N 
ATOM     18  O   UNL d   1      53.951  32.008  54.086  0.00  0.00    -0.531 OA
ATOM     19  O   UNL d   1      54.908  32.803  53.432  0.00  0.00    -0.531 OA
ENDBRANCH   1  17
TORSDOF 3
ENDMDL
MODEL 4
REMARK VINA RESULT:      -7.6      1.235      1.934
REMARK  3 active torsions:
REMARK  status: ('A' for Active; 'I' for Inactive)
REMARK    1  A    between atoms: N_3  and  C_1 
REMARK    2  A    between atoms: O_4  and  C_2 
REMARK    3  A    between atoms: C_7  and  O_4 
ROOT
ATOM      1  C   UNL d   1      51.394  33.912  52.977  0.00  0.00     0.205 A 
ATOM      2  C   UNL d   1      52.136  34.003  53.293  0.00  0.00     0.209 A 
ATOM      3  N   UNL d   1      52.726  34.321  52.839  0.00  0.00    -0.198 NA
ATOM      4  C   UNL d   1      51.238  34.141  52.199  0.00  0.00     0.211 A 
ATOM      5  N   UNL d   1      51.827  34.459  51.745  0.00  0.00    -0.202 NA
ATOM      6  C   UNL d   1      52.565  34.552  52.053  0.00  0.00     0.202 A 
ATOM      7  N   UNL d   1      50.485  34.052  51.868  0.00  0.00    -0.125 N 
ENDROOT
BRANCH   2   8
ATOM      8  O   UNL d   1      52.321  33.777  54.085  0.00  0.00    -0.288 OA
BRANCH   8   9
ATOM      9  C   UNL d   1      53.085  33.507  54.259  0.00  0.00     0.102 A 
ATOM     10  C   UNL d   1      53.549  33.913  54.795  0.00  0.00     0.023 A 
ATOM     11  C   UNL d   1      54.312  33.638  54.965  0.00  0.00     0.002 A 
ATOM     12  C   UNL d   1      53.292  34.580  55.171  0.00  0.00     0.002 C 
ATOM     13  C   UNL d   1      54.605  32.960  54.598  0.00  0.00     0.000 A 
ATOM     14  C   UNL d   1      54.131  32.555  54.058  0.00  0.00     0.002 A 
ATOM     15  C   UNL d   1      53.355  32.823  53.876  0.00  0.00     0.025 A 
ATOM     16  C   UNL d   1      54.421  31.852  53.670  0.00  0.00     0.000 C 
ENDBRANCH   8   9
ENDBRANCH   2   8
BRANCH   1  17
ATOM     17  N   UNL d   1      50.794  33.589  53.436  0.00  0.00    -0.107 N 
ATOM     18  O   UNL d   1      50.689  32.797  53.449  0.00  0.00    -0.531 OA
ATOM     19  O   UNL d   1      50.314  34.083  53.874  0.00  0.00    -0.531 OA
ENDBRANCH   1  17
TORSDOF 3
ENDMDL
MODEL 5
REMARK VINA RESULT:      -7.2      2.033      3.364
REMARK  3 active torsions:
REMARK  status: ('A' for Active; 'I' for Inactive)
REMARK    1  A    between atoms: N_3  and  C_1 
REMARK    2  A    between atoms: O_4  and  C_2 
REMARK    3  A    between atoms: C_7  and  O_4 
ROOT
ATOM      1  C   UNL d   1      53.222  31.049  53.414  0.00  0.00     0.205 A 
ATOM      2  C   UNL d   1      53.534  31.796  53.453  0.00  0.00     0.209 A 
ATOM      3  N   UNL d   1      53.140  32.411  53.104  0.00  0.00    -0.198 NA
ATOM      4  C   UNL d   1      52.507  30.911  53.021  0.00  0.00     0.211 A 
ATOM      5  N   UNL d   1      52.113  31.526  52.672  0.00  0.00    -0.202 NA
ATOM      6  C   UNL d   1      52.418  32.269  52.708  0.00  0.00     0.202 A 
ATOM      7  N   UNL d   1      52.182  30.152  52.976  0.00  0.00    -0.125 N 
ENDROOT
BRANCH   2   8
ATOM      8  O   UNL d   1      54.261  31.963  53.848  0.00  0.00    -0.288 OA
BRANCH   8   9
ATOM      9  C   UNL d   1      54.378  32.713  54.178  0.00  0.00     0.102 A 
ATOM     10  C   UNL d   1      55.016  33.167  53.946  0.00  0.00     0.023 A 
ATOM     11  C   UNL d   1      55.128  33.916  54.280  0.00  0.00     0.002 A 
ATOM     12  C   UNL d   1      55.550  32.911  53.396  0.00  0.00     0.002 C 
ATOM     13  C   UNL d   1      54.601  34.207  54.844  0.00  0.00     0.000 A 
ATOM     14  C   UNL d   1      53.958  33.744  55.075  0.00  0.00     0.002 A 
ATOM     15  C   UNL d   1      53.833  32.981  54.743  0.00  0.00     0.025 A 
ATOM     16  C   UNL d   1      53.405  34.031  55.657  0.00  0.00     0.000 C 
ENDBRANCH   8   9
ENDBRANCH   2   8
BRANCH   1  17
ATOM     17  N   UNL d   1      53.620  30.423  53.767  0.00  0.00    -0.107 N 
ATOM     18  O   UNL d   1      53.439  30.212  54.516  0.00  0.00    -0.531 OA
ATOM     19  O   UNL d   1      54.196  30.026  53.347  0.00  0.00    -0.531 OA
ENDBRANCH   1  17
TORSDOF 3
ENDMDL
MODEL 6
REMARK VINA RESULT:      -7.1      1.680      3.583
REMARK  3 active torsions:
REMARK  status: ('A' for Active; 'I' for Inactive)
REMARK    1  A    between atoms: N_3  and  C_1 
REMARK    2  A    between atoms: O_4  and  C_2 
REMARK    3  A    between atoms: C_7  and  O_4 
ROOT
ATOM      1  C   UNL d   1      53.070  31.352  53.390  0.00  0.00     0.205 A 
ATOM      2  C   UNL d   1      52.820  32.116  53.498  0.00  0.00     0.209 A 
ATOM      3  N   UNL d   1      53.171  32.573  54.067  0.00  0.00    -0.198 NA
ATOM      4  C   UNL d   1      53.677  31.038  53.855  0.00  0.00     0.211 A 
ATOM      5  N   UNL d   1      54.027  31.494  54.424  0.00  0.00    -0.202 NA
ATOM      6  C   UNL d   1      53.784  32.253  54.535  0.00  0.00     0.202 A 
ATOM      7  N   UNL d   1      53.938  30.260  53.752  0.00  0.00    -0.125 N 
ENDROOT
BRANCH   2   8
ATOM      8  O   UNL d   1      52.203  32.460  53.037  0.00  0.00    -0.288 OA
BRANCH   8   9
ATOM      9  C   UNL d   1      52.065  33.275  53.091  0.00  0.00     0.102 A 
ATOM     10  C   UNL d   1      51.306  33.554  53.211  0.00  0.00     0.023 A 
ATOM     11  C   UNL d   1      51.175  34.370  53.264  0.00  0.00     0.002 A 
ATOM     12  C   UNL d   1      50.671  33.060  53.280  0.00  0.00     0.002 C 
ATOM     13  C   UNL d   1      51.802  34.901  53.197  0.00  0.00     0.000 A 
ATOM     14  C   UNL d   1      52.566  34.613  53.076  0.00  0.00     0.002 A 
ATOM     15  C   UNL d   1      52.713  33.788  53.020  0.00  0.00     0.025 A 
ATOM     16  C   UNL d   1      53.224  35.151  53.005  0.00  0.00     0.000 C 
ENDBRANCH   8   9
ENDBRANCH   2   8
BRANCH   1  17
ATOM     17  N   UNL d   1      52.715  30.887  52.813  0.00  0.00    -0.107 N 
ATOM     18  O   UNL d   1      52.972  30.931  52.057  0.00  0.00    -0.531 OA
ATOM     19  O   UNL d   1      52.105  30.386  53.020  0.00  0.00    -0.531 OA
ENDBRANCH   1  17
TORSDOF 3
ENDMDL
MODEL 7
REMARK VINA RESULT:      -7.1      1.335      2.021
REMARK  3 active torsions:
REMARK  status: ('A' for Active; 'I' for Inactive)
REMARK    1  A    between atoms: N_3  and  C_1 
REMARK    2  A    between atoms: O_4  and  C_2 
REMARK    3  A    between atoms: C_7  and  O_4 
ROOT
ATOM      1  C   UNL d   1      52.812  34.472  53.852  0.00  0.00     0.205 A 
ATOM      2  C   UNL d   1      52.839  33.661  53.860  0.00  0.00     0.209 A 
ATOM      3  N   UNL d   1      53.203  33.281  54.476  0.00  0.00    -0.198 NA
ATOM      4  C   UNL d   1      53.150  34.910  54.466  0.00  0.00     0.211 A 
ATOM      5  N   UNL d   1      53.513  34.531  55.081  0.00  0.00    -0.202 NA
ATOM      6  C   UNL d   1      53.543  33.727  55.094  0.00  0.00     0.202 A 
ATOM      7  N   UNL d   1      53.126  35.737  54.466  0.00  0.00    -0.125 N 
ENDROOT
BRANCH   2   8
ATOM      8  O   UNL d   1      52.502  33.191  53.246  0.00  0.00    -0.288 OA
BRANCH   8   9
ATOM      9  C   UNL d   1      52.669  32.380  53.221  0.00  0.00     0.102 A 
ATOM     10  C   UNL d   1      52.058  31.838  53.201  0.00  0.00     0.023 A 
ATOM     11  C   UNL d   1      52.230  31.028  53.176  0.00  0.00     0.002 A 
ATOM     12  C   UNL d   1      51.281  32.062  53.204  0.00  0.00     0.002 C 
ATOM     13  C   UNL d   1      53.013  30.766  53.172  0.00  0.00     0.000 A 
ATOM     14  C   UNL d   1      53.625  31.319  53.192  0.00  0.00     0.002 A 
ATOM     15  C   UNL d   1      53.463  32.143  53.217  0.00  0.00     0.025 A 
ATOM     16  C   UNL d   1      54.439  31.062  53.188  0.00  0.00     0.000 C 
ENDBRANCH   8   9
ENDBRANCH   2   8
BRANCH   1  17
ATOM     17  N   UNL d   1      52.444  34.860  53.228  0.00  0.00    -0.107 N 
ATOM     18  O   UNL d   1      52.857  35.018  52.562  0.00  0.00    -0.531 OA
ATOM     19  O   UNL d   1      51.660  35.077  53.297  0.00  0.00    -0.531 OA
ENDBRANCH   1  17
TORSDOF 3
ENDMDL
