MODEL 1
REMARK VINA RESULT:      42.8      0.000      0.000
REMARK  3 active torsions:
REMARK  status: ('A' for Active; 'I' for Inactive)
REMARK    1  A    between atoms: S_3  and  N_1 
REMARK    2  A    between atoms: C_7  and  C_4 
REMARK    3  A    between atoms: C_11  and  C_5 
ROOT
ATOM      1  N   UNL d   1     -54.974-101.439 -43.734  0.00  0.00    -0.155 N 
ATOM      2  N   UNL d   1     -54.906-101.945 -43.092  0.00  0.00    -0.156 NA
ATOM      3  C   UNL d   1     -55.032-100.653 -43.451  0.00  0.00     0.102 A 
ATOM      4  C   UNL d   1     -54.922-101.474 -42.398  0.00  0.00     0.104 A 
ATOM      5  C   UNL d   1     -54.998-100.690 -42.632  0.00  0.00     0.041 A 
ENDROOT
BRANCH   4   6
ATOM      6  C   UNL d   1     -54.869-101.750 -41.614  0.00  0.00     0.019 A 
ATOM      7  C   UNL d   1     -54.765-101.206 -40.990  0.00  0.00     0.002 A 
ATOM      8  C   UNL d   1     -54.712-101.481 -40.203  0.00  0.00     0.000 A 
ATOM      9  C   UNL d   1     -54.763-102.293 -40.042  0.00  0.00     0.000 A 
ATOM     10  C   UNL d   1     -54.866-102.813 -40.672  0.00  0.00     0.000 A 
ATOM     11  C   UNL d   1     -54.712-102.550 -39.290  0.00  0.00     0.000 C 
ATOM     12  C   UNL d   1     -54.921-102.562 -41.453  0.00  0.00     0.002 A 
ENDBRANCH   4   6
BRANCH   1  13
ATOM     13  S   UNL d   1     -54.982-101.687 -44.544  0.00  0.00     0.266 S 
ATOM     14  O   UNL d   1     -55.002-101.965 -45.333  0.00  0.00    -0.203 OA
ATOM     15  O   UNL d   1     -54.713-100.950 -44.781  0.00  0.00    -0.203 OA
ATOM     16  C   UNL d   1     -55.263-102.456 -44.278  0.00  0.00     0.165 C 
ENDBRANCH   1  13
BRANCH   3  17
ATOM     17  C   UNL d   1     -55.108 -99.970 -43.929  0.00  0.00     0.048 A 
ATOM     18  S   UNL d   1     -55.598 -99.317 -43.758  0.00  0.00    -0.085 SA
ATOM     19  C   UNL d   1     -55.490 -98.785 -44.384  0.00  0.00     0.035 A 
ATOM     20  C   UNL d   1     -54.967 -99.079 -44.919  0.00  0.00     0.007 A 
ATOM     21  C   UNL d   1     -54.725 -99.816 -44.643  0.00  0.00     0.009 A 
ENDBRANCH   3  17
TORSDOF 3
ENDMDL
