MODEL 1
REMARK VINA RESULT:      -4.1      0.000      0.000
REMARK  4 active torsions:
REMARK  status: ('A' for Active; 'I' for Inactive)
REMARK    1  A    between atoms: C_2  and  S_1 
REMARK    2  A    between atoms: N_3  and  S_1 
REMARK    3  A    between atoms: C_5  and  C_11 
REMARK    4  A    between atoms: O_20  and  C_8 
ROOT
ATOM      1  S   UNL d   1     -41.888-122.978 -50.373  0.00  0.00     0.273 S 
ATOM      2  O   UNL d   1     -42.223-122.219 -50.357  0.00  0.00    -0.200 OA
ATOM      3  O   UNL d   1     -41.554-123.736 -50.383  0.00  0.00    -0.200 OA
ENDROOT
BRANCH   1   4
ATOM      4  C   UNL d   1     -42.055-123.054 -49.572  0.00  0.00     0.128 A 
ATOM      5  C   UNL d   1     -41.507-122.808 -49.010  0.00  0.00     0.044 A 
ATOM      6  C   UNL d   1     -41.675-122.885 -48.205  0.00  0.00     0.141 A 
ATOM      7  F   UNL d   1     -41.123-122.638 -47.642  0.00  0.00    -0.204 F 
ATOM      8  C   UNL d   1     -42.394-123.208 -47.970  0.00  0.00     0.032 A 
ATOM      9  C   UNL d   1     -42.947-123.455 -48.534  0.00  0.00     0.027 A 
ATOM     10  C   UNL d   1     -42.776-123.377 -49.333  0.00  0.00     0.106 A 
BRANCH  10  11
ATOM     11  O   UNL d   1     -43.325-123.623 -49.906  0.00  0.00    -0.327 OA
ATOM     12  C   UNL d   1     -44.104-123.797 -49.679  0.00  0.00     0.181 C 
ENDBRANCH  10  11
ENDBRANCH   1   4
BRANCH   1  13
ATOM     13  N   UNL d   1     -41.719-122.901 -51.180  0.00  0.00    -0.229 N 
ATOM     14  C   UNL d   1     -41.757-122.158 -51.551  0.00  0.00     0.092 A 
ATOM     15  C   UNL d   1     -41.588-122.081 -52.359  0.00  0.00     0.025 A 
ATOM     16  C   UNL d   1     -41.381-122.747 -52.795  0.00  0.00     0.062 A 
ATOM     17  C   UNL d   1     -41.339-123.488 -52.441  0.00  0.00     0.025 A 
ATOM     18  C   UNL d   1     -41.509-123.565 -51.633  0.00  0.00     0.092 A 
BRANCH  16  19
ATOM     19  C   UNL d   1     -41.212-122.670 -53.603  0.00  0.00     0.297 C 
ATOM     20  O   UNL d   1     -41.131-121.919 -53.940  0.00  0.00    -0.264 OA
ATOM     21  N   UNL d   1     -41.123-123.344 -54.082  0.00  0.00    -0.102 N 
ENDBRANCH  16  19
ENDBRANCH   1  13
TORSDOF 4
ENDMDL
MODEL 2
REMARK VINA RESULT:      -3.3      1.860      4.216
REMARK  4 active torsions:
REMARK  status: ('A' for Active; 'I' for Inactive)
REMARK    1  A    between atoms: C_2  and  S_1 
REMARK    2  A    between atoms: N_3  and  S_1 
REMARK    3  A    between atoms: C_5  and  C_11 
REMARK    4  A    between atoms: O_20  and  C_8 
ROOT
ATOM      1  S   UNL d   1     -41.753-122.839 -51.012  0.00  0.00     0.273 S 
ATOM      2  O   UNL d   1     -41.123-123.376 -50.988  0.00  0.00    -0.200 OA
ATOM      3  O   UNL d   1     -42.383-122.300 -51.041  0.00  0.00    -0.200 OA
ENDROOT
BRANCH   1   4
ATOM      4  C   UNL d   1     -41.569-122.677 -51.796  0.00  0.00     0.128 A 
ATOM      5  C   UNL d   1     -41.643-123.265 -52.368  0.00  0.00     0.044 A 
ATOM      6  C   UNL d   1     -41.458-123.102 -53.156  0.00  0.00     0.141 A 
ATOM      7  F   UNL d   1     -41.533-123.694 -53.729  0.00  0.00    -0.204 F 
ATOM      8  C   UNL d   1     -41.198-122.350 -53.365  0.00  0.00     0.032 A 
ATOM      9  C   UNL d   1     -41.123-121.758 -52.792  0.00  0.00     0.027 A 
ATOM     10  C   UNL d   1     -41.308-121.924 -52.009  0.00  0.00     0.106 A 
BRANCH  10  11
ATOM     11  O   UNL d   1     -41.235-121.335 -51.427  0.00  0.00    -0.327 OA
ATOM     12  C   UNL d   1     -41.125-120.545 -51.654  0.00  0.00     0.181 C 
ENDBRANCH  10  11
ENDBRANCH   1   4
BRANCH   1  13
ATOM     13  N   UNL d   1     -41.939-123.001 -50.222  0.00  0.00    -0.229 N 
ATOM     14  C   UNL d   1     -42.724-123.156 -49.996  0.00  0.00     0.092 A 
ATOM     15  C   UNL d   1     -42.911-123.319 -49.204  0.00  0.00     0.025 A 
ATOM     16  C   UNL d   1     -42.312-123.327 -48.640  0.00  0.00     0.062 A 
ATOM     17  C   UNL d   1     -41.531-123.176 -48.850  0.00  0.00     0.025 A 
ATOM     18  C   UNL d   1     -41.344-123.013 -49.641  0.00  0.00     0.092 A 
BRANCH  16  19
ATOM     19  C   UNL d   1     -42.498-123.491 -47.849  0.00  0.00     0.297 C 
ATOM     20  O   UNL d   1     -43.247-123.779 -47.651  0.00  0.00    -0.264 OA
ATOM     21  N   UNL d   1     -41.937-123.366 -47.249  0.00  0.00    -0.102 N 
ENDBRANCH  16  19
ENDBRANCH   1  13
TORSDOF 4
ENDMDL
