MODEL 1
REMARK VINA RESULT:      -5.5      0.000      0.000
REMARK  2 active torsions:
REMARK  status: ('A' for Active; 'I' for Inactive)
REMARK    1  A    between atoms: N_5  and  C_1 
REMARK       I    between atoms: C_7  and  N_5 
REMARK    2  A    between atoms: C_11  and  C_7 
ROOT
ATOM      1  C   UNL d   1      58.244  -0.421  30.216  0.00  0.00     0.124 A 
ATOM      2  C   UNL d   1      58.577  -0.968  29.745  0.00  0.00     0.093 A 
ATOM      3  S   UNL d   1      58.634   0.297  30.121  0.00  0.00    -0.067 SA
ATOM      4  C   UNL d   1      59.193  -0.621  29.330  0.00  0.00     0.018 A 
ATOM      5  C   UNL d   1      59.230   0.191  29.571  0.00  0.00     0.032 A 
ATOM      6  C   UNL d   1      58.334  -1.793  29.678  0.00  0.00     0.103 C 
ATOM      7  N   UNL d   1      58.115  -2.581  29.602  0.00  0.00    -0.191 NA
ATOM      8  C   UNL d   1      59.722  -0.909  28.777  0.00  0.00     0.001 A 
ATOM      9  C   UNL d   1      59.793   0.682  29.250  0.00  0.00     0.006 A 
ATOM     10  C   UNL d   1      60.293  -0.376  28.463  0.00  0.00     0.000 A 
ATOM     11  C   UNL d   1      60.326   0.362  28.683  0.00  0.00     0.001 A 
ENDROOT
BRANCH   1  12
ATOM     12  N   UNL d   1      57.588  -0.548  30.739  0.00  0.00    -0.201 NA
ATOM     13  C   UNL d   1      57.506  -0.090  31.423  0.00  0.00     0.280 C 
ATOM     14  O   UNL d   1      58.081   0.518  31.613  0.00  0.00    -0.265 OA
BRANCH  13  15
ATOM     15  C   UNL d   1      56.879  -0.210  31.924  0.00  0.00     0.058 A 
ATOM     16  C   UNL d   1      56.461   0.470  32.218  0.00  0.00     0.005 A 
ATOM     17  C   UNL d   1      55.806   0.344  32.741  0.00  0.00     0.000 A 
ATOM     18  C   UNL d   1      55.600  -0.457  32.944  0.00  0.00     0.000 A 
ATOM     19  C   UNL d   1      56.013  -1.102  32.652  0.00  0.00     0.000 A 
ATOM     20  C   UNL d   1      56.640  -0.981  32.151  0.00  0.00     0.005 A 
ENDBRANCH  13  15
ENDBRANCH   1  12
TORSDOF 2
ENDMDL
MODEL 2
REMARK VINA RESULT:      -5.0      1.368      1.780
REMARK  2 active torsions:
REMARK  status: ('A' for Active; 'I' for Inactive)
REMARK    1  A    between atoms: N_5  and  C_1 
REMARK       I    between atoms: C_7  and  N_5 
REMARK    2  A    between atoms: C_11  and  C_7 
ROOT
ATOM      1  C   UNL d   1      58.080   0.566  30.846  0.00  0.00     0.124 A 
ATOM      2  C   UNL d   1      58.873   0.616  30.868  0.00  0.00     0.093 A 
ATOM      3  S   UNL d   1      57.827   0.547  30.063  0.00  0.00    -0.067 SA
ATOM      4  C   UNL d   1      59.159   0.632  30.099  0.00  0.00     0.018 A 
ATOM      5  C   UNL d   1      58.488   0.588  29.583  0.00  0.00     0.032 A 
ATOM      6  C   UNL d   1      59.358   0.650  31.580  0.00  0.00     0.103 C 
ATOM      7  N   UNL d   1      59.834   0.682  32.249  0.00  0.00    -0.191 NA
ATOM      8  C   UNL d   1      59.913   0.679  29.788  0.00  0.00     0.001 A 
ATOM      9  C   UNL d   1      58.599   0.592  28.777  0.00  0.00     0.006 A 
ATOM     10  C   UNL d   1      59.995   0.682  28.951  0.00  0.00     0.000 A 
ATOM     11  C   UNL d   1      59.385   0.641  28.481  0.00  0.00     0.001 A 
ENDROOT
BRANCH   1  12
ATOM     12  N   UNL d   1      57.564   0.535  31.519  0.00  0.00    -0.201 NA
ATOM     13  C   UNL d   1      57.013  -0.076  31.594  0.00  0.00     0.280 C 
ATOM     14  O   UNL d   1      56.953  -0.686  30.995  0.00  0.00    -0.265 OA
BRANCH  13  15
ATOM     15  C   UNL d   1      56.519  -0.105  32.238  0.00  0.00     0.058 A 
ATOM     16  C   UNL d   1      56.320  -0.867  32.559  0.00  0.00     0.005 A 
ATOM     17  C   UNL d   1      55.805  -0.898  33.232  0.00  0.00     0.000 A 
ATOM     18  C   UNL d   1      55.514  -0.165  33.550  0.00  0.00     0.000 A 
ATOM     19  C   UNL d   1      55.715   0.562  33.229  0.00  0.00     0.000 A 
ATOM     20  C   UNL d   1      56.208   0.592  32.585  0.00  0.00     0.005 A 
ENDBRANCH  13  15
ENDBRANCH   1  12
TORSDOF 2
ENDMDL
MODEL 3
REMARK VINA RESULT:      -3.4      1.019      4.079
REMARK  2 active torsions:
REMARK  status: ('A' for Active; 'I' for Inactive)
REMARK    1  A    between atoms: N_5  and  C_1 
REMARK       I    between atoms: C_7  and  N_5 
REMARK    2  A    between atoms: C_11  and  C_7 
ROOT
ATOM      1  C   UNL d   1      57.593   0.005  31.039  0.00  0.00     0.124 A 
ATOM      2  C   UNL d   1      57.237  -0.662  31.285  0.00  0.00     0.093 A 
ATOM      3  S   UNL d   1      57.361   0.632  31.519  0.00  0.00    -0.067 SA
ATOM      4  C   UNL d   1      56.762  -0.488  31.930  0.00  0.00     0.018 A 
ATOM      5  C   UNL d   1      56.842   0.343  32.081  0.00  0.00     0.032 A 
ATOM      6  C   UNL d   1      57.330  -1.444  30.932  0.00  0.00     0.103 C 
ATOM      7  N   UNL d   1      57.408  -2.194  30.608  0.00  0.00    -0.191 NA
ATOM      8  C   UNL d   1      56.276  -0.945  32.402  0.00  0.00     0.001 A 
ATOM      9  C   UNL d   1      56.432   0.682  32.696  0.00  0.00     0.006 A 
ATOM     10  C   UNL d   1      55.865  -0.565  33.030  0.00  0.00     0.000 A 
ATOM     11  C   UNL d   1      55.937   0.190  33.167  0.00  0.00     0.001 A 
ENDROOT
BRANCH   1  12
ATOM     12  N   UNL d   1      58.131   0.071  30.387  0.00  0.00    -0.201 NA
ATOM     13  C   UNL d   1      58.881   0.402  30.497  0.00  0.00     0.280 C 
ATOM     14  O   UNL d   1      59.126   0.682  31.269  0.00  0.00    -0.265 OA
BRANCH  13  15
ATOM     15  C   UNL d   1      59.396   0.466  29.872  0.00  0.00     0.058 A 
ATOM     16  C   UNL d   1      60.227   0.374  30.024  0.00  0.00     0.005 A 
ATOM     17  C   UNL d   1      60.765   0.440  29.372  0.00  0.00     0.000 A 
ATOM     18  C   UNL d   1      60.444   0.596  28.599  0.00  0.00     0.000 A 
ATOM     19  C   UNL d   1      59.639   0.682  28.469  0.00  0.00     0.000 A 
ATOM     20  C   UNL d   1      59.125   0.618  29.094  0.00  0.00     0.005 A 
ENDBRANCH  13  15
ENDBRANCH   1  12
TORSDOF 2
ENDMDL
MODEL 4
REMARK VINA RESULT:      -3.3      9.585      9.919
REMARK  2 active torsions:
REMARK  status: ('A' for Active; 'I' for Inactive)
REMARK    1  A    between atoms: N_5  and  C_1 
REMARK       I    between atoms: C_7  and  N_5 
REMARK    2  A    between atoms: C_11  and  C_7 
ROOT
ATOM      1  C   UNL d   1      59.203  -9.792  32.782  0.00  0.00     0.124 A 
ATOM      2  C   UNL d   1      59.496  -9.802  32.044  0.00  0.00     0.093 A 
ATOM      3  S   UNL d   1      58.380  -9.789  32.750  0.00  0.00    -0.067 SA
ATOM      4  C   UNL d   1      58.874  -9.806  31.510  0.00  0.00     0.018 A 
ATOM      5  C   UNL d   1      58.158  -9.798  31.963  0.00  0.00     0.032 A 
ATOM      6  C   UNL d   1      60.333  -9.808  31.832  0.00  0.00     0.103 C 
ATOM      7  N   UNL d   1      61.124  -9.813  31.615  0.00  0.00    -0.191 NA
ATOM      8  C   UNL d   1      58.842  -9.816  30.693  0.00  0.00     0.001 A 
ATOM      9  C   UNL d   1      57.439  -9.800  31.582  0.00  0.00     0.006 A 
ATOM     10  C   UNL d   1      58.084  -9.818  30.328  0.00  0.00     0.000 A 
ATOM     11  C   UNL d   1      57.433  -9.810  30.741  0.00  0.00     0.001 A 
ENDROOT
BRANCH   1  12
ATOM     12  N   UNL d   1      59.657  -9.785  33.498  0.00  0.00    -0.201 NA
ATOM     13  C   UNL d   1      59.448  -9.280  34.120  0.00  0.00     0.280 C 
ATOM     14  O   UNL d   1      58.771  -8.759  34.049  0.00  0.00    -0.265 OA
BRANCH  13  15
ATOM     15  C   UNL d   1      59.882  -9.274  34.805  0.00  0.00     0.058 A 
ATOM     16  C   UNL d   1      60.548  -8.747  34.855  0.00  0.00     0.005 A 
ATOM     17  C   UNL d   1      61.002  -8.740  35.572  0.00  0.00     0.000 A 
ATOM     18  C   UNL d   1      60.767  -9.260  36.203  0.00  0.00     0.000 A 
ATOM     19  C   UNL d   1      60.122  -9.762  36.139  0.00  0.00     0.000 A 
ATOM     20  C   UNL d   1      59.688  -9.769  35.453  0.00  0.00     0.005 A 
ENDBRANCH  13  15
ENDBRANCH   1  12
TORSDOF 2
ENDMDL
MODEL 5
REMARK VINA RESULT:      -2.7      1.333      4.280
REMARK  2 active torsions:
REMARK  status: ('A' for Active; 'I' for Inactive)
REMARK    1  A    between atoms: N_5  and  C_1 
REMARK       I    between atoms: C_7  and  N_5 
REMARK    2  A    between atoms: C_11  and  C_7 
ROOT
ATOM      1  C   UNL d   1      56.842   0.040  31.848  0.00  0.00     0.124 A 
ATOM      2  C   UNL d   1      56.529  -0.637  32.122  0.00  0.00     0.093 A 
ATOM      3  S   UNL d   1      56.633   0.660  32.347  0.00  0.00    -0.067 SA
ATOM      4  C   UNL d   1      56.106  -0.478  32.806  0.00  0.00     0.018 A 
ATOM      5  C   UNL d   1      56.173   0.355  32.951  0.00  0.00     0.032 A 
ATOM      6  C   UNL d   1      56.616  -1.416  31.761  0.00  0.00     0.103 C 
ATOM      7  N   UNL d   1      56.689  -2.164  31.430  0.00  0.00    -0.191 NA
ATOM      8  C   UNL d   1      55.676  -0.949  33.317  0.00  0.00     0.001 A 
ATOM      9  C   UNL d   1      55.807   0.682  33.600  0.00  0.00     0.006 A 
ATOM     10  C   UNL d   1      55.310  -0.582  33.979  0.00  0.00     0.000 A 
ATOM     11  C   UNL d   1      55.370   0.175  34.110  0.00  0.00     0.001 A 
ENDROOT
BRANCH   1  12
ATOM     12  N   UNL d   1      57.319   0.123  31.152  0.00  0.00    -0.201 NA
ATOM     13  C   UNL d   1      58.083   0.435  31.205  0.00  0.00     0.280 C 
ATOM     14  O   UNL d   1      58.404   0.679  31.961  0.00  0.00    -0.265 OA
BRANCH  13  15
ATOM     15  C   UNL d   1      58.540   0.514  30.538  0.00  0.00     0.058 A 
ATOM     16  C   UNL d   1      59.386   0.518  30.627  0.00  0.00     0.005 A 
ATOM     17  C   UNL d   1      59.863   0.600  29.931  0.00  0.00     0.000 A 
ATOM     18  C   UNL d   1      59.471   0.675  29.180  0.00  0.00     0.000 A 
ATOM     19  C   UNL d   1      58.654   0.670  29.111  0.00  0.00     0.000 A 
ATOM     20  C   UNL d   1      58.197   0.591  29.777  0.00  0.00     0.005 A 
ENDBRANCH  13  15
ENDBRANCH   1  12
TORSDOF 2
ENDMDL
