MODEL 1
REMARK VINA RESULT:      -2.1      0.000      0.000
REMARK  3 active torsions:
REMARK  status: ('A' for Active; 'I' for Inactive)
REMARK    1  A    between atoms: S_9  and  C_3 
REMARK    2  A    between atoms: C_15  and  S_9 
REMARK    3  A    between atoms: C_11  and  C_15 
ROOT
ATOM      1  N   UNL d   1     -41.556-122.029 -51.391  0.00  0.00    -0.263 N 
ATOM      2  C   UNL d   1     -41.384-121.327 -50.977  0.00  0.00     0.202 A 
ATOM      3  C   UNL d   1     -41.394-121.881 -52.195  0.00  0.00     0.202 A 
ATOM      4  N   UNL d   1     -41.123-120.759 -51.512  0.00  0.00    -0.121 NA
ATOM      5  S   UNL d   1     -41.546-121.472 -50.166  0.00  0.00    -0.047 SA
ATOM      6  N   UNL d   1     -41.129-121.106 -52.270  0.00  0.00    -0.121 NA
ATOM      7  C   UNL d   1     -41.817-122.594 -50.848  0.00  0.00     0.074 A 
ATOM      8  C   UNL d   1     -41.813-122.257 -50.095  0.00  0.00     0.049 A 
ATOM      9  C   UNL d   1     -42.059-123.375 -50.950  0.00  0.00     0.018 A 
ATOM     10  C   UNL d   1     -42.048-122.697 -49.454  0.00  0.00     0.008 A 
ATOM     11  C   UNL d   1     -42.296-123.817 -50.295  0.00  0.00     0.002 A 
ATOM     12  C   UNL d   1     -42.289-123.473 -49.545  0.00  0.00     0.001 A 
ENDROOT
BRANCH   3  13
ATOM     13  S   UNL d   1     -41.485-122.421 -52.802  0.00  0.00    -0.047 SA
BRANCH  13  14
ATOM     14  C   UNL d   1     -41.264-122.221 -53.567  0.00  0.00     0.045 C 
BRANCH  14  15
ATOM     15  C   UNL d   1     -41.473-122.710 -54.199  0.00  0.00     0.036 A 
ATOM     16  S   UNL d   1     -41.962-122.500 -54.833  0.00  0.00    -0.086 SA
ATOM     17  C   UNL d   1     -42.018-123.152 -55.328  0.00  0.00     0.035 A 
ATOM     18  C   UNL d   1     -41.570-123.766 -55.011  0.00  0.00     0.007 A 
ATOM     19  C   UNL d   1     -41.234-123.485 -54.311  0.00  0.00     0.007 A 
ENDBRANCH  14  15
ENDBRANCH  13  14
ENDBRANCH   3  13
TORSDOF 3
ENDMDL
MODEL 2
REMARK VINA RESULT:      -1.2      1.395      4.217
REMARK  3 active torsions:
REMARK  status: ('A' for Active; 'I' for Inactive)
REMARK    1  A    between atoms: S_9  and  C_3 
REMARK    2  A    between atoms: C_15  and  S_9 
REMARK    3  A    between atoms: C_11  and  C_15 
ROOT
ATOM      1  N   UNL d   1     -41.746-122.627 -53.545  0.00  0.00    -0.263 N 
ATOM      2  C   UNL d   1     -41.428-123.265 -53.976  0.00  0.00     0.202 A 
ATOM      3  C   UNL d   1     -41.630-122.800 -52.738  0.00  0.00     0.202 A 
ATOM      4  N   UNL d   1     -41.123-123.818 -53.449  0.00  0.00    -0.121 NA
ATOM      5  S   UNL d   1     -41.543-123.096 -54.791  0.00  0.00    -0.047 SA
ATOM      6  N   UNL d   1     -41.249-123.526 -52.678  0.00  0.00    -0.121 NA
ATOM      7  C   UNL d   1     -42.051-122.078 -54.080  0.00  0.00     0.074 A 
ATOM      8  C   UNL d   1     -41.929-122.360 -54.846  0.00  0.00     0.049 A 
ATOM      9  C   UNL d   1     -42.425-121.353 -53.962  0.00  0.00     0.018 A 
ATOM     10  C   UNL d   1     -42.179-121.922 -55.483  0.00  0.00     0.008 A 
ATOM     11  C   UNL d   1     -42.676-120.912 -54.613  0.00  0.00     0.002 A 
ATOM     12  C   UNL d   1     -42.550-121.202 -55.375  0.00  0.00     0.001 A 
ENDROOT
BRANCH   3  13
ATOM     13  S   UNL d   1     -41.859-122.322 -52.116  0.00  0.00    -0.047 SA
BRANCH  13  14
ATOM     14  C   UNL d   1     -41.466-122.368 -51.396  0.00  0.00     0.045 C 
BRANCH  14  15
ATOM     15  C   UNL d   1     -41.897-122.412 -50.692  0.00  0.00     0.036 A 
ATOM     16  S   UNL d   1     -41.671-122.826 -50.012  0.00  0.00    -0.086 SA
ATOM     17  C   UNL d   1     -42.261-122.719 -49.450  0.00  0.00     0.035 A 
ATOM     18  C   UNL d   1     -42.851-122.243 -49.773  0.00  0.00     0.007 A 
ATOM     19  C   UNL d   1     -42.619-122.056 -50.543  0.00  0.00     0.007 A 
ENDBRANCH  14  15
ENDBRANCH  13  14
ENDBRANCH   3  13
TORSDOF 3
ENDMDL
MODEL 3
REMARK VINA RESULT:       0.1      1.310      1.751
REMARK  3 active torsions:
REMARK  status: ('A' for Active; 'I' for Inactive)
REMARK    1  A    between atoms: S_9  and  C_3 
REMARK    2  A    between atoms: C_15  and  S_9 
REMARK    3  A    between atoms: C_11  and  C_15 
ROOT
ATOM      1  N   UNL d   1     -42.126-122.926 -51.011  0.00  0.00    -0.263 N 
ATOM      2  C   UNL d   1     -41.738-123.452 -50.495  0.00  0.00     0.202 A 
ATOM      3  C   UNL d   1     -41.736-122.975 -51.745  0.00  0.00     0.202 A 
ATOM      4  N   UNL d   1     -41.123-123.817 -50.901  0.00  0.00    -0.121 NA
ATOM      5  S   UNL d   1     -42.128-123.406 -49.753  0.00  0.00    -0.047 SA
ATOM      6  N   UNL d   1     -41.123-123.519 -51.680  0.00  0.00    -0.121 NA
ATOM      7  C   UNL d   1     -42.742-122.563 -50.597  0.00  0.00     0.074 A 
ATOM      8  C   UNL d   1     -42.748-122.854 -49.825  0.00  0.00     0.049 A 
ATOM      9  C   UNL d   1     -43.298-122.003 -50.831  0.00  0.00     0.018 A 
ATOM     10  C   UNL d   1     -43.303-122.587 -49.297  0.00  0.00     0.008 A 
ATOM     11  C   UNL d   1     -43.860-121.734 -50.290  0.00  0.00     0.002 A 
ATOM     12  C   UNL d   1     -43.859-122.031 -49.519  0.00  0.00     0.001 A 
ENDROOT
BRANCH   3  13
ATOM     13  S   UNL d   1     -41.934-122.550 -52.415  0.00  0.00    -0.047 SA
BRANCH  13  14
ATOM     14  C   UNL d   1     -41.461-122.593 -53.085  0.00  0.00     0.045 C 
BRANCH  14  15
ATOM     15  C   UNL d   1     -41.753-122.336 -53.814  0.00  0.00     0.036 A 
ATOM     16  S   UNL d   1     -41.839-122.802 -54.492  0.00  0.00    -0.086 SA
ATOM     17  C   UNL d   1     -42.146-122.323 -55.084  0.00  0.00     0.035 A 
ATOM     18  C   UNL d   1     -42.252-121.564 -54.782  0.00  0.00     0.007 A 
ATOM     19  C   UNL d   1     -42.006-121.579 -53.994  0.00  0.00     0.007 A 
ENDBRANCH  14  15
ENDBRANCH  13  14
ENDBRANCH   3  13
TORSDOF 3
ENDMDL
