MODEL 1
REMARK VINA RESULT:      -6.1      0.000      0.000
REMARK  4 active torsions:
REMARK  status: ('A' for Active; 'I' for Inactive)
REMARK    1  A    between atoms: C_7  and  C_3 
REMARK       I    between atoms: N_13  and  C_7 
REMARK    2  A    between atoms: C_14  and  N_13 
REMARK    3  A    between atoms: C_16  and  C_14 
REMARK    4  A    between atoms: C_15  and  C_16 
ROOT
ATOM      1  C   UNL d   1     -46.806  12.629  22.950  0.00  0.00     0.285 C 
ATOM      2  O   UNL d   1     -46.644  13.393  23.185  0.00  0.00    -0.265 OA
ATOM      3  N   UNL d   1     -47.488  12.463  22.523  0.00  0.00    -0.206 NA
ENDROOT
BRANCH   1   4
ATOM      4  C   UNL d   1     -46.287  12.012  23.137  0.00  0.00     0.133 A 
ATOM      5  C   UNL d   1     -45.488  12.084  22.943  0.00  0.00     0.272 A 
ATOM      6  N   UNL d   1     -44.958  11.475  23.126  0.00  0.00    -0.265 N 
ATOM      7  O   UNL d   1     -45.209  12.761  22.567  0.00  0.00    -0.266 OA
ATOM      8  C   UNL d   1     -45.237  10.798  23.502  0.00  0.00     0.181 A 
ATOM      9  C   UNL d   1     -44.155  11.390  23.005  0.00  0.00     0.123 A 
ATOM     10  N   UNL d   1     -46.032  10.725  23.695  0.00  0.00    -0.220 NA
ATOM     11  S   UNL d   1     -44.599  10.288  23.615  0.00  0.00    -0.049 SA
ATOM     12  C   UNL d   1     -46.559  11.333  23.513  0.00  0.00     0.111 A 
ATOM     13  C   UNL d   1     -43.925  10.663  23.303  0.00  0.00     0.043 A 
ENDBRANCH   1   4
BRANCH   3  14
ATOM     14  C   UNL d   1     -48.009  13.067  22.331  0.00  0.00     0.102 C 
BRANCH  14  15
ATOM     15  C   UNL d   1     -48.497  13.015  21.667  0.00  0.00     0.021 C 
BRANCH  15  16
ATOM     16  C   UNL d   1     -49.292  13.241  21.714  0.00  0.00     0.002 A 
ATOM     17  C   UNL d   1     -49.496  14.038  21.639  0.00  0.00     0.000 A 
ATOM     18  C   UNL d   1     -50.281  14.261  21.685  0.00  0.00     0.000 A 
ATOM     19  C   UNL d   1     -50.879  13.690  21.807  0.00  0.00     0.000 A 
ATOM     20  C   UNL d   1     -50.666  12.901  21.881  0.00  0.00     0.000 A 
ATOM     21  C   UNL d   1     -49.878  12.669  21.835  0.00  0.00     0.000 A 
ENDBRANCH  15  16
ENDBRANCH  14  15
ENDBRANCH   3  14
TORSDOF 4
ENDMDL
MODEL 2
REMARK VINA RESULT:      -6.1      2.118      5.051
REMARK  4 active torsions:
REMARK  status: ('A' for Active; 'I' for Inactive)
REMARK    1  A    between atoms: C_7  and  C_3 
REMARK       I    between atoms: N_13  and  C_7 
REMARK    2  A    between atoms: C_14  and  N_13 
REMARK    3  A    between atoms: C_16  and  C_14 
REMARK    4  A    between atoms: C_15  and  C_16 
ROOT
ATOM      1  C   UNL d   1     -48.198  11.660  22.793  0.00  0.00     0.285 C 
ATOM      2  O   UNL d   1     -48.190  10.961  22.374  0.00  0.00    -0.265 OA
ATOM      3  N   UNL d   1     -47.522  11.918  23.182  0.00  0.00    -0.206 NA
ENDROOT
BRANCH   1   4
ATOM      4  C   UNL d   1     -48.885  12.119  22.832  0.00  0.00     0.133 A 
ATOM      5  C   UNL d   1     -49.139  12.523  22.159  0.00  0.00     0.272 A 
ATOM      6  N   UNL d   1     -49.826  12.986  22.184  0.00  0.00    -0.265 N 
ATOM      7  O   UNL d   1     -48.715  12.471  21.455  0.00  0.00    -0.266 OA
ATOM      8  C   UNL d   1     -50.250  13.038  22.887  0.00  0.00     0.181 A 
ATOM      9  C   UNL d   1     -50.205  13.439  21.620  0.00  0.00     0.123 A 
ATOM     10  N   UNL d   1     -49.999  12.637  23.558  0.00  0.00    -0.220 NA
ATOM     11  S   UNL d   1     -50.899  13.529  22.757  0.00  0.00    -0.049 SA
ATOM     12  C   UNL d   1     -49.315  12.176  23.532  0.00  0.00     0.111 A 
ATOM     13  C   UNL d   1     -50.867  13.777  21.964  0.00  0.00     0.043 A 
ENDBRANCH   1   4
BRANCH   3  14
ATOM     14  C   UNL d   1     -46.835  11.469  23.150  0.00  0.00     0.102 C 
BRANCH  14  15
ATOM     15  C   UNL d   1     -46.106  11.789  23.372  0.00  0.00     0.021 C 
BRANCH  15  16
ATOM     16  C   UNL d   1     -45.424  11.321  23.363  0.00  0.00     0.002 A 
ATOM     17  C   UNL d   1     -44.732  11.612  23.020  0.00  0.00     0.000 A 
ATOM     18  C   UNL d   1     -44.058  11.148  23.012  0.00  0.00     0.000 A 
ATOM     19  C   UNL d   1     -44.065  10.383  23.347  0.00  0.00     0.000 A 
ATOM     20  C   UNL d   1     -44.757  10.103  23.686  0.00  0.00     0.000 A 
ATOM     21  C   UNL d   1     -45.439  10.563  23.698  0.00  0.00     0.000 A 
ENDBRANCH  15  16
ENDBRANCH  14  15
ENDBRANCH   3  14
TORSDOF 4
ENDMDL
MODEL 3
REMARK VINA RESULT:      -6.0      0.941      1.234
REMARK  4 active torsions:
REMARK  status: ('A' for Active; 'I' for Inactive)
REMARK    1  A    between atoms: C_7  and  C_3 
REMARK       I    between atoms: N_13  and  C_7 
REMARK    2  A    between atoms: C_14  and  N_13 
REMARK    3  A    between atoms: C_16  and  C_14 
REMARK    4  A    between atoms: C_15  and  C_16 
ROOT
ATOM      1  C   UNL d   1     -46.769  12.964  23.159  0.00  0.00     0.285 C 
ATOM      2  O   UNL d   1     -46.427  13.696  23.263  0.00  0.00    -0.265 OA
ATOM      3  N   UNL d   1     -47.560  12.902  22.948  0.00  0.00    -0.206 NA
ENDROOT
BRANCH   1   4
ATOM      4  C   UNL d   1     -46.325  12.273  23.266  0.00  0.00     0.133 A 
ATOM      5  C   UNL d   1     -45.533  12.264  23.035  0.00  0.00     0.272 A 
ATOM      6  N   UNL d   1     -45.077  11.580  23.135  0.00  0.00    -0.265 N 
ATOM      7  O   UNL d   1     -45.187  12.933  22.703  0.00  0.00    -0.266 OA
ATOM      8  C   UNL d   1     -45.423  10.911  23.468  0.00  0.00     0.181 A 
ATOM      9  C   UNL d   1     -44.297  11.408  22.964  0.00  0.00     0.123 A 
ATOM     10  N   UNL d   1     -46.211  10.919  23.698  0.00  0.00    -0.220 NA
ATOM     11  S   UNL d   1     -44.851  10.319  23.502  0.00  0.00    -0.049 SA
ATOM     12  C   UNL d   1     -46.664  11.600  23.597  0.00  0.00     0.111 A 
ATOM     13  C   UNL d   1     -44.149  10.634  23.187  0.00  0.00     0.043 A 
ENDBRANCH   1   4
BRANCH   3  14
ATOM     14  C   UNL d   1     -48.010  13.581  22.840  0.00  0.00     0.102 C 
BRANCH  14  15
ATOM     15  C   UNL d   1     -48.820  13.535  22.685  0.00  0.00     0.021 C 
BRANCH  15  16
ATOM     16  C   UNL d   1     -49.310  14.186  22.830  0.00  0.00     0.002 A 
ATOM     17  C   UNL d   1     -50.024  14.079  23.231  0.00  0.00     0.000 A 
ATOM     18  C   UNL d   1     -50.508  14.723  23.374  0.00  0.00     0.000 A 
ATOM     19  C   UNL d   1     -50.286  15.486  23.119  0.00  0.00     0.000 A 
ATOM     20  C   UNL d   1     -49.575  15.583  22.722  0.00  0.00     0.000 A 
ATOM     21  C   UNL d   1     -49.083  14.940  22.573  0.00  0.00     0.000 A 
ENDBRANCH  15  16
ENDBRANCH  14  15
ENDBRANCH   3  14
TORSDOF 4
ENDMDL
MODEL 4
REMARK VINA RESULT:      -6.0      2.437      5.114
REMARK  4 active torsions:
REMARK  status: ('A' for Active; 'I' for Inactive)
REMARK    1  A    between atoms: C_7  and  C_3 
REMARK       I    between atoms: N_13  and  C_7 
REMARK    2  A    between atoms: C_14  and  N_13 
REMARK    3  A    between atoms: C_16  and  C_14 
REMARK    4  A    between atoms: C_15  and  C_16 
ROOT
ATOM      1  C   UNL d   1     -48.274  13.585  22.387  0.00  0.00     0.285 C 
ATOM      2  O   UNL d   1     -48.212  13.474  21.582  0.00  0.00    -0.265 OA
ATOM      3  N   UNL d   1     -47.623  13.461  22.873  0.00  0.00    -0.206 NA
ENDROOT
BRANCH   1   4
ATOM      4  C   UNL d   1     -48.990  13.823  22.725  0.00  0.00     0.133 A 
ATOM      5  C   UNL d   1     -49.162  14.628  22.782  0.00  0.00     0.272 A 
ATOM      6  N   UNL d   1     -49.875  14.881  23.118  0.00  0.00    -0.265 N 
ATOM      7  O   UNL d   1     -48.627  15.190  22.505  0.00  0.00    -0.266 OA
ATOM      8  C   UNL d   1     -50.410  14.320  23.395  0.00  0.00     0.181 A 
ATOM      9  C   UNL d   1     -50.191  15.622  23.247  0.00  0.00     0.123 A 
ATOM     10  N   UNL d   1     -50.241  13.518  23.339  0.00  0.00    -0.220 NA
ATOM     11  S   UNL d   1     -51.064  14.719  23.698  0.00  0.00    -0.049 SA
ATOM     12  C   UNL d   1     -49.530  13.268  23.004  0.00  0.00     0.111 A 
ATOM     13  C   UNL d   1     -50.923  15.533  23.603  0.00  0.00     0.043 A 
ENDBRANCH   1   4
BRANCH   3  14
ATOM     14  C   UNL d   1     -46.907  13.224  22.547  0.00  0.00     0.102 C 
BRANCH  14  15
ATOM     15  C   UNL d   1     -46.251  13.072  23.025  0.00  0.00     0.021 C 
BRANCH  15  16
ATOM     16  C   UNL d   1     -45.533  12.840  22.686  0.00  0.00     0.002 A 
ATOM     17  C   UNL d   1     -45.170  13.325  22.124  0.00  0.00     0.000 A 
ATOM     18  C   UNL d   1     -44.460  13.095  21.790  0.00  0.00     0.000 A 
ATOM     19  C   UNL d   1     -44.099  12.375  22.011  0.00  0.00     0.000 A 
ATOM     20  C   UNL d   1     -44.466  11.901  22.570  0.00  0.00     0.000 A 
ATOM     21  C   UNL d   1     -45.181  12.125  22.912  0.00  0.00     0.000 A 
ENDBRANCH  15  16
ENDBRANCH  14  15
ENDBRANCH   3  14
TORSDOF 4
ENDMDL
MODEL 5
REMARK VINA RESULT:      -5.8      1.361      1.729
REMARK  4 active torsions:
REMARK  status: ('A' for Active; 'I' for Inactive)
REMARK    1  A    between atoms: C_7  and  C_3 
REMARK       I    between atoms: N_13  and  C_7 
REMARK    2  A    between atoms: C_14  and  N_13 
REMARK    3  A    between atoms: C_16  and  C_14 
REMARK    4  A    between atoms: C_15  and  C_16 
ROOT
ATOM      1  C   UNL d   1     -46.711  12.720  22.998  0.00  0.00     0.285 C 
ATOM      2  O   UNL d   1     -46.893  13.390  23.425  0.00  0.00    -0.265 OA
ATOM      3  N   UNL d   1     -47.306  12.207  22.758  0.00  0.00    -0.206 NA
ENDROOT
BRANCH   1   4
ATOM      4  C   UNL d   1     -45.926  12.549  22.799  0.00  0.00     0.133 A 
ATOM      5  C   UNL d   1     -45.546  13.006  22.227  0.00  0.00     0.272 A 
ATOM      6  N   UNL d   1     -44.760  12.845  22.018  0.00  0.00    -0.265 N 
ATOM      7  O   UNL d   1     -45.942  13.625  21.856  0.00  0.00    -0.266 OA
ATOM      8  C   UNL d   1     -44.365  12.226  22.389  0.00  0.00     0.181 A 
ATOM      9  C   UNL d   1     -44.251  13.193  21.484  0.00  0.00     0.123 A 
ATOM     10  N   UNL d   1     -44.742  11.770  22.958  0.00  0.00    -0.220 NA
ATOM     11  S   UNL d   1     -43.602  12.190  22.080  0.00  0.00    -0.049 SA
ATOM     12  C   UNL d   1     -45.524  11.931  23.165  0.00  0.00     0.111 A 
ATOM     13  C   UNL d   1     -43.535  12.797  21.515  0.00  0.00     0.043 A 
ENDBRANCH   1   4
BRANCH   3  14
ATOM     14  C   UNL d   1     -48.088  12.368  22.950  0.00  0.00     0.102 C 
BRANCH  14  15
ATOM     15  C   UNL d   1     -48.698  11.868  22.706  0.00  0.00     0.021 C 
BRANCH  15  16
ATOM     16  C   UNL d   1     -49.488  12.081  22.832  0.00  0.00     0.002 A 
ATOM     17  C   UNL d   1     -49.837  11.943  23.568  0.00  0.00     0.000 A 
ATOM     18  C   UNL d   1     -50.618  12.153  23.691  0.00  0.00     0.000 A 
ATOM     19  C   UNL d   1     -51.064  12.507  23.080  0.00  0.00     0.000 A 
ATOM     20  C   UNL d   1     -50.709  12.640  22.353  0.00  0.00     0.000 A 
ATOM     21  C   UNL d   1     -49.924  12.431  22.221  0.00  0.00     0.000 A 
ENDBRANCH  15  16
ENDBRANCH  14  15
ENDBRANCH   3  14
TORSDOF 4
ENDMDL
MODEL 6
REMARK VINA RESULT:      -5.5      8.213      8.663
REMARK  4 active torsions:
REMARK  status: ('A' for Active; 'I' for Inactive)
REMARK    1  A    between atoms: C_7  and  C_3 
REMARK       I    between atoms: N_13  and  C_7 
REMARK    2  A    between atoms: C_14  and  N_13 
REMARK    3  A    between atoms: C_16  and  C_14 
REMARK    4  A    between atoms: C_15  and  C_16 
ROOT
ATOM      1  C   UNL d   1     -40.116  15.195  20.903  0.00  0.00     0.285 C 
ATOM      2  O   UNL d   1     -40.872  14.890  20.898  0.00  0.00    -0.265 OA
ATOM      3  N   UNL d   1     -39.784  15.492  20.213  0.00  0.00    -0.206 NA
ENDROOT
BRANCH   1   4
ATOM      4  C   UNL d   1     -39.673  15.209  21.603  0.00  0.00     0.133 A 
ATOM      5  C   UNL d   1     -39.390  14.500  21.915  0.00  0.00     0.272 A 
ATOM      6  N   UNL d   1     -38.946  14.500  22.614  0.00  0.00    -0.265 N 
ATOM      7  O   UNL d   1     -39.545  13.785  21.537  0.00  0.00    -0.266 OA
ATOM      8  C   UNL d   1     -38.790  15.214  22.992  0.00  0.00     0.181 A 
ATOM      9  C   UNL d   1     -38.600  13.900  23.046  0.00  0.00     0.123 A 
ATOM     10  N   UNL d   1     -39.072  15.921  22.682  0.00  0.00    -0.220 NA
ATOM     11  S   UNL d   1     -38.343  15.054  23.665  0.00  0.00    -0.049 SA
ATOM     12  C   UNL d   1     -39.514  15.920  21.986  0.00  0.00     0.111 A 
ATOM     13  C   UNL d   1     -38.226  14.231  23.695  0.00  0.00     0.043 A 
ENDBRANCH   1   4
BRANCH   3  14
ATOM     14  C   UNL d   1     -40.215  15.482  19.514  0.00  0.00     0.102 C 
BRANCH  14  15
ATOM     15  C   UNL d   1     -39.970  15.918  18.857  0.00  0.00     0.021 C 
BRANCH  15  16
ATOM     16  C   UNL d   1     -40.200  15.688  18.095  0.00  0.00     0.002 A 
ATOM     17  C   UNL d   1     -40.936  15.922  17.801  0.00  0.00     0.000 A 
ATOM     18  C   UNL d   1     -41.161  15.695  17.048  0.00  0.00     0.000 A 
ATOM     19  C   UNL d   1     -40.654  15.230  16.575  0.00  0.00     0.000 A 
ATOM     20  C   UNL d   1     -39.925  15.003  16.876  0.00  0.00     0.000 A 
ATOM     21  C   UNL d   1     -39.691  15.227  17.632  0.00  0.00     0.000 A 
ENDBRANCH  15  16
ENDBRANCH  14  15
ENDBRANCH   3  14
TORSDOF 4
ENDMDL
MODEL 7
REMARK VINA RESULT:      -5.3      8.815     10.251
REMARK  4 active torsions:
REMARK  status: ('A' for Active; 'I' for Inactive)
REMARK    1  A    between atoms: C_7  and  C_3 
REMARK       I    between atoms: N_13  and  C_7 
REMARK    2  A    between atoms: C_14  and  N_13 
REMARK    3  A    between atoms: C_16  and  C_14 
REMARK    4  A    between atoms: C_15  and  C_16 
ROOT
ATOM      1  C   UNL d   1     -39.362  14.080  18.350  0.00  0.00     0.285 C 
ATOM      2  O   UNL d   1     -40.067  13.681  18.443  0.00  0.00    -0.265 OA
ATOM      3  N   UNL d   1     -38.923  14.304  19.007  0.00  0.00    -0.206 NA
ENDROOT
BRANCH   1   4
ATOM      4  C   UNL d   1     -39.081  14.266  17.594  0.00  0.00     0.133 A 
ATOM      5  C   UNL d   1     -38.746  13.670  17.132  0.00  0.00     0.272 A 
ATOM      6  N   UNL d   1     -38.460  13.841  16.373  0.00  0.00    -0.265 N 
ATOM      7  O   UNL d   1     -38.692  12.900  17.417  0.00  0.00    -0.266 OA
ATOM      8  C   UNL d   1     -38.514  14.611  16.087  0.00  0.00     0.181 A 
ATOM      9  C   UNL d   1     -38.109  13.378  15.800  0.00  0.00     0.123 A 
ATOM     10  N   UNL d   1     -38.847  15.205  16.547  0.00  0.00    -0.220 NA
ATOM     11  S   UNL d   1     -38.193  14.625  15.329  0.00  0.00    -0.049 SA
ATOM     12  C   UNL d   1     -39.132  15.033  17.302  0.00  0.00     0.111 A 
ATOM     13  C   UNL d   1     -37.940  13.852  15.154  0.00  0.00     0.043 A 
ENDBRANCH   1   4
BRANCH   3  14
ATOM     14  C   UNL d   1     -39.193  14.126  19.761  0.00  0.00     0.102 C 
BRANCH  14  15
ATOM     15  C   UNL d   1     -38.856  14.475  20.429  0.00  0.00     0.021 C 
BRANCH  15  16
ATOM     16  C   UNL d   1     -38.799  14.052  21.138  0.00  0.00     0.002 A 
ATOM     17  C   UNL d   1     -38.121  13.607  21.296  0.00  0.00     0.000 A 
ATOM     18  C   UNL d   1     -38.066  13.189  21.997  0.00  0.00     0.000 A 
ATOM     19  C   UNL d   1     -38.688  13.209  22.554  0.00  0.00     0.000 A 
ATOM     20  C   UNL d   1     -39.356  13.655  22.389  0.00  0.00     0.000 A 
ATOM     21  C   UNL d   1     -39.420  14.078  21.686  0.00  0.00     0.000 A 
ENDBRANCH  15  16
ENDBRANCH  14  15
ENDBRANCH   3  14
TORSDOF 4
ENDMDL
MODEL 8
REMARK VINA RESULT:      -4.0      8.394      9.544
REMARK  4 active torsions:
REMARK  status: ('A' for Active; 'I' for Inactive)
REMARK    1  A    between atoms: C_7  and  C_3 
REMARK       I    between atoms: N_13  and  C_7 
REMARK    2  A    between atoms: C_14  and  N_13 
REMARK    3  A    between atoms: C_16  and  C_14 
REMARK    4  A    between atoms: C_15  and  C_16 
ROOT
ATOM      1  C   UNL d   1     -39.340  14.320  19.514  0.00  0.00     0.285 C 
ATOM      2  O   UNL d   1     -38.602  13.984  19.432  0.00  0.00    -0.265 OA
ATOM      3  N   UNL d   1     -39.655  14.449  20.261  0.00  0.00    -0.206 NA
ENDROOT
BRANCH   1   4
ATOM      4  C   UNL d   1     -39.782  14.533  18.847  0.00  0.00     0.133 A 
ATOM      5  C   UNL d   1     -39.504  15.135  18.356  0.00  0.00     0.272 A 
ATOM      6  N   UNL d   1     -39.936  15.359  17.685  0.00  0.00    -0.265 N 
ATOM      7  O   UNL d   1     -38.797  15.520  18.525  0.00  0.00    -0.266 OA
ATOM      8  C   UNL d   1     -40.644  14.975  17.516  0.00  0.00     0.181 A 
ATOM      9  C   UNL d   1     -39.805  15.922  17.109  0.00  0.00     0.123 A 
ATOM     10  N   UNL d   1     -40.921  14.375  18.004  0.00  0.00    -0.220 NA
ATOM     11  S   UNL d   1     -40.954  15.303  16.827  0.00  0.00    -0.049 SA
ATOM     12  C   UNL d   1     -40.491  14.153  18.672  0.00  0.00     0.111 A 
ATOM     13  C   UNL d   1     -40.426  15.895  16.576  0.00  0.00     0.043 A 
ENDBRANCH   1   4
BRANCH   3  14
ATOM     14  C   UNL d   1     -39.225  14.241  20.929  0.00  0.00     0.102 C 
BRANCH  14  15
ATOM     15  C   UNL d   1     -39.561  14.283  21.683  0.00  0.00     0.021 C 
BRANCH  15  16
ATOM     16  C   UNL d   1     -39.094  14.162  22.355  0.00  0.00     0.002 A 
ATOM     17  C   UNL d   1     -38.709  14.803  22.707  0.00  0.00     0.000 A 
ATOM     18  C   UNL d   1     -38.248  14.682  23.371  0.00  0.00     0.000 A 
ATOM     19  C   UNL d   1     -38.163  13.918  23.697  0.00  0.00     0.000 A 
ATOM     20  C   UNL d   1     -38.550  13.288  23.341  0.00  0.00     0.000 A 
ATOM     21  C   UNL d   1     -39.016  13.401  22.672  0.00  0.00     0.000 A 
ENDBRANCH  15  16
ENDBRANCH  14  15
ENDBRANCH   3  14
TORSDOF 4
ENDMDL
