MODEL 1
REMARK VINA RESULT:      -0.7      0.000      0.000
REMARK  4 active torsions:
REMARK  status: ('A' for Active; 'I' for Inactive)
REMARK    1  A    between atoms: C_6  and  C_1 
REMARK       I    between atoms: N_9  and  C_6 
REMARK       I    between atoms: C_8  and  N_10 
REMARK    2  A    between atoms: C_11  and  C_8 
REMARK    3  A    between atoms: N_10  and  N_9 
REMARK    4  A    between atoms: O_22  and  C_13 
ROOT
ATOM      1  C   UNL d   1      32.363  18.456 -23.329  0.00  0.00     0.123 A 
ATOM      2  C   UNL d   1      31.658  18.403 -23.755  0.00  0.00     0.305 A 
ATOM      3  O   UNL d   1      31.389  17.682 -24.002  0.00  0.00    -0.271 OA
ATOM      4  C   UNL d   1      32.779  17.787 -23.162  0.00  0.00     0.012 A 
ATOM      5  C   UNL d   1      31.814  16.974 -23.834  0.00  0.00     0.125 A 
ATOM      6  C   UNL d   1      32.518  17.027 -23.408  0.00  0.00     0.025 A 
ATOM      7  O   UNL d   1      31.237  19.071 -23.925  0.00  0.00    -0.259 OA
ATOM      8  C   UNL d   1      31.547  16.231 -24.082  0.00  0.00     0.117 A 
ATOM      9  C   UNL d   1      32.937  16.336 -23.242  0.00  0.00     0.002 A 
ATOM     10  C   UNL d   1      32.675  15.590 -23.488  0.00  0.00     0.002 A 
ATOM     11  C   UNL d   1      31.971  15.536 -23.914  0.00  0.00     0.026 A 
ENDROOT
BRANCH   1  12
ATOM     12  C   UNL d   1      32.654  19.178 -23.069  0.00  0.00     0.302 C 
ATOM     13  N   UNL d   1      32.357  19.482 -22.358  0.00  0.00    -0.102 NA
ATOM     14  O   UNL d   1      33.240  19.598 -23.514  0.00  0.00    -0.263 OA
BRANCH  13  15
ATOM     15  N   UNL d   1      32.630  20.193 -22.080  0.00  0.00    -0.102 NA
ATOM     16  C   UNL d   1      32.153  20.640 -21.567  0.00  0.00     0.297 C 
ATOM     17  O   UNL d   1      31.421  20.373 -21.341  0.00  0.00    -0.264 OA
BRANCH  16  18
ATOM     18  C   UNL d   1      32.421  21.357 -21.283  0.00  0.00     0.059 A 
ATOM     19  C   UNL d   1      32.159  22.060 -21.601  0.00  0.00     0.005 A 
ATOM     20  C   UNL d   1      32.424  22.782 -21.321  0.00  0.00     0.007 A 
ATOM     21  C   UNL d   1      32.964  22.819 -20.709  0.00  0.00     0.035 A 
ATOM     22  C   UNL d   1      33.238  22.098 -20.377  0.00  0.00     0.007 A 
ATOM     23 BR   UNL d   1      33.226  23.545 -20.432  0.00  0.00    -0.049 Br
ATOM     24  C   UNL d   1      32.973  21.377 -20.658  0.00  0.00     0.005 A 
ENDBRANCH  16  18
ENDBRANCH  13  15
ENDBRANCH   1  12
BRANCH   8  25
ATOM     25  O   UNL d   1      30.850  16.178 -24.503  0.00  0.00    -0.326 OA
ATOM     26  C   UNL d   1      30.491  15.461 -24.610  0.00  0.00     0.181 C 
ENDBRANCH   8  25
TORSDOF 4
ENDMDL
MODEL 2
REMARK VINA RESULT:      -0.1      2.658      3.868
REMARK  4 active torsions:
REMARK  status: ('A' for Active; 'I' for Inactive)
REMARK    1  A    between atoms: C_6  and  C_1 
REMARK       I    between atoms: N_9  and  C_6 
REMARK       I    between atoms: C_8  and  N_10 
REMARK    2  A    between atoms: C_11  and  C_8 
REMARK    3  A    between atoms: N_10  and  N_9 
REMARK    4  A    between atoms: O_22  and  C_13 
ROOT
ATOM      1  C   UNL d   1      32.815  20.940 -21.801  0.00  0.00     0.123 A 
ATOM      2  C   UNL d   1      32.917  20.164 -22.063  0.00  0.00     0.305 A 
ATOM      3  O   UNL d   1      33.021  20.015 -22.851  0.00  0.00    -0.271 OA
ATOM      4  C   UNL d   1      32.819  21.545 -22.333  0.00  0.00     0.012 A 
ATOM      5  C   UNL d   1      33.028  20.638 -23.419  0.00  0.00     0.125 A 
ATOM      6  C   UNL d   1      32.925  21.413 -23.156  0.00  0.00     0.025 A 
ATOM      7  O   UNL d   1      32.914  19.555 -21.534  0.00  0.00    -0.259 OA
ATOM      8  C   UNL d   1      33.134  20.496 -24.227  0.00  0.00     0.117 A 
ATOM      9  C   UNL d   1      32.931  22.026 -23.709  0.00  0.00     0.002 A 
ATOM     10  C   UNL d   1      33.037  21.890 -24.519  0.00  0.00     0.002 A 
ATOM     11  C   UNL d   1      33.140  21.115 -24.782  0.00  0.00     0.026 A 
ENDROOT
BRANCH   1  12
ATOM     12  C   UNL d   1      32.707  21.114 -21.006  0.00  0.00     0.302 C 
ATOM     13  N   UNL d   1      32.879  21.883 -20.752  0.00  0.00    -0.102 NA
ATOM     14  O   UNL d   1      32.430  20.525 -20.464  0.00  0.00    -0.263 OA
BRANCH  13  15
ATOM     15  N   UNL d   1      32.781  22.079 -19.971  0.00  0.00    -0.102 NA
ATOM     16  C   UNL d   1      32.764  22.880 -19.751  0.00  0.00     0.297 C 
ATOM     17  O   UNL d   1      32.845  23.465 -20.307  0.00  0.00    -0.264 OA
BRANCH  16  18
ATOM     18  C   UNL d   1      32.666  23.085 -18.967  0.00  0.00     0.059 A 
ATOM     19  C   UNL d   1      33.239  22.918 -18.413  0.00  0.00     0.005 A 
ATOM     20  C   UNL d   1      33.146  23.121 -17.626  0.00  0.00     0.007 A 
ATOM     21  C   UNL d   1      32.470  23.501 -17.370  0.00  0.00     0.035 A 
ATOM     22  C   UNL d   1      31.874  23.676 -17.936  0.00  0.00     0.007 A 
ATOM     23 BR   UNL d   1      32.382  23.702 -16.580  0.00  0.00    -0.049 Br
ATOM     24  C   UNL d   1      31.968  23.472 -18.723  0.00  0.00     0.005 A 
ENDBRANCH  16  18
ENDBRANCH  13  15
ENDBRANCH   1  12
BRANCH   8  25
ATOM     25  O   UNL d   1      33.235  19.729 -24.487  0.00  0.00    -0.326 OA
ATOM     26  C   UNL d   1      32.756  19.427 -25.065  0.00  0.00     0.181 C 
ENDBRANCH   8  25
TORSDOF 4
ENDMDL
MODEL 3
REMARK VINA RESULT:       0.8      2.286      5.875
REMARK  4 active torsions:
REMARK  status: ('A' for Active; 'I' for Inactive)
REMARK    1  A    between atoms: C_6  and  C_1 
REMARK       I    between atoms: N_9  and  C_6 
REMARK       I    between atoms: C_8  and  N_10 
REMARK    2  A    between atoms: C_11  and  C_8 
REMARK    3  A    between atoms: N_10  and  N_9 
REMARK    4  A    between atoms: O_22  and  C_13 
ROOT
ATOM      1  C   UNL d   1      32.797  21.075 -21.616  0.00  0.00     0.123 A 
ATOM      2  C   UNL d   1      32.991  20.825 -20.854  0.00  0.00     0.305 A 
ATOM      3  O   UNL d   1      32.932  21.339 -20.233  0.00  0.00    -0.271 OA
ATOM      4  C   UNL d   1      32.551  21.832 -21.737  0.00  0.00     0.012 A 
ATOM      5  C   UNL d   1      32.676  22.134 -20.344  0.00  0.00     0.125 A 
ATOM      6  C   UNL d   1      32.482  22.384 -21.106  0.00  0.00     0.025 A 
ATOM      7  O   UNL d   1      33.238  20.067 -20.728  0.00  0.00    -0.259 OA
ATOM      8  C   UNL d   1      32.613  22.668 -19.715  0.00  0.00     0.117 A 
ATOM      9  C   UNL d   1      32.231  23.162 -21.219  0.00  0.00     0.002 A 
ATOM     10  C   UNL d   1      32.166  23.701 -20.594  0.00  0.00     0.002 A 
ATOM     11  C   UNL d   1      32.360  23.451 -19.832  0.00  0.00     0.026 A 
ENDROOT
BRANCH   1  12
ATOM     12  C   UNL d   1      32.849  20.570 -22.261  0.00  0.00     0.302 C 
ATOM     13  N   UNL d   1      32.884  19.756 -22.112  0.00  0.00    -0.102 NA
ATOM     14  O   UNL d   1      32.866  20.872 -23.052  0.00  0.00    -0.263 OA
BRANCH  13  15
ATOM     15  N   UNL d   1      32.936  19.236 -22.733  0.00  0.00    -0.102 NA
ATOM     16  C   UNL d   1      33.012  18.424 -22.579  0.00  0.00     0.297 C 
ATOM     17  O   UNL d   1      33.035  18.145 -21.818  0.00  0.00    -0.264 OA
BRANCH  16  18
ATOM     18  C   UNL d   1      33.064  17.895 -23.199  0.00  0.00     0.059 A 
ATOM     19  C   UNL d   1      33.096  17.092 -23.066  0.00  0.00     0.005 A 
ATOM     20  C   UNL d   1      33.148  16.557 -23.683  0.00  0.00     0.007 A 
ATOM     21  C   UNL d   1      33.171  16.815 -24.457  0.00  0.00     0.035 A 
ATOM     22  C   UNL d   1      33.139  17.642 -24.602  0.00  0.00     0.007 A 
ATOM     23 BR   UNL d   1      33.224  16.274 -25.072  0.00  0.00    -0.049 Br
ATOM     24  C   UNL d   1      33.087  18.176 -23.984  0.00  0.00     0.005 A 
ENDBRANCH  16  18
ENDBRANCH  13  15
ENDBRANCH   1  12
BRANCH   8  25
ATOM     25  O   UNL d   1      32.804  22.421 -18.962  0.00  0.00    -0.326 OA
ATOM     26  C   UNL d   1      32.861  22.957 -18.358  0.00  0.00     0.181 C 
ENDBRANCH   8  25
TORSDOF 4
ENDMDL
