MODEL 1
REMARK VINA RESULT:      -4.1      0.000      0.000
REMARK  2 active torsions:
REMARK  status: ('A' for Active; 'I' for Inactive)
REMARK    1  A    between atoms: C_5  and  N_1 
REMARK    2  A    between atoms: O_14  and  C_11 
ROOT
ATOM      1  C   UNL d   1     -41.972-122.981 -50.206  0.00  0.00     0.069 A 
ATOM      2  C   UNL d   1     -42.184-122.227 -50.468  0.00  0.00     0.020 A 
ATOM      3  C   UNL d   1     -41.451-123.438 -50.684  0.00  0.00     0.020 A 
ATOM      4  C   UNL d   1     -41.397-122.362 -51.635  0.00  0.00     0.094 A 
ATOM      5  C   UNL d   1     -41.895-121.926 -51.179  0.00  0.00     0.026 A 
ATOM      6  C   UNL d   1     -41.163-123.131 -51.397  0.00  0.00     0.026 A 
ENDROOT
BRANCH   1   7
ATOM      7  N   UNL d   1     -42.276-123.263 -49.488  0.00  0.00    -0.249 N 
ATOM      8  C   UNL d   1     -41.892-123.227 -48.759  0.00  0.00     0.208 A 
ATOM      9  N   UNL d   1     -42.423-123.583 -48.200  0.00  0.00    -0.212 NA
ATOM     10  S   UNL d   1     -41.134-122.902 -48.611  0.00  0.00    -0.038 SA
ATOM     11  C   UNL d   1     -43.092-123.814 -48.622  0.00  0.00     0.162 A 
ATOM     12  C   UNL d   1     -42.994-123.613 -49.414  0.00  0.00     0.286 A 
ATOM     13  O   UNL d   1     -43.543-123.746 -50.044  0.00  0.00    -0.265 OA
ENDBRANCH   1   7
BRANCH   4  14
ATOM     14  O   UNL d   1     -41.123-122.036 -52.340  0.00  0.00    -0.328 OA
ATOM     15  C   UNL d   1     -41.348-122.365 -53.061  0.00  0.00     0.181 C 
ENDBRANCH   4  14
TORSDOF 2
ENDMDL
MODEL 2
REMARK VINA RESULT:      -4.0      1.661      3.245
REMARK  2 active torsions:
REMARK  status: ('A' for Active; 'I' for Inactive)
REMARK    1  A    between atoms: C_5  and  N_1 
REMARK    2  A    between atoms: O_14  and  C_11 
ROOT
ATOM      1  C   UNL d   1     -41.716-122.669 -50.661  0.00  0.00     0.069 A 
ATOM      2  C   UNL d   1     -41.145-123.000 -50.165  0.00  0.00     0.020 A 
ATOM      3  C   UNL d   1     -42.484-122.527 -50.347  0.00  0.00     0.020 A 
ATOM      4  C   UNL d   1     -42.053-123.054 -49.081  0.00  0.00     0.094 A 
ATOM      5  C   UNL d   1     -41.319-123.189 -49.381  0.00  0.00     0.026 A 
ATOM      6  C   UNL d   1     -42.654-122.719 -49.560  0.00  0.00     0.026 A 
ENDROOT
BRANCH   1   7
ATOM      7  N   UNL d   1     -41.518-122.487 -51.445  0.00  0.00    -0.249 N 
ATOM      8  C   UNL d   1     -41.248-121.756 -51.713  0.00  0.00     0.208 A 
ATOM      9  N   UNL d   1     -41.123-121.847 -52.548  0.00  0.00    -0.212 NA
ATOM     10  S   UNL d   1     -41.125-121.069 -51.248  0.00  0.00    -0.038 SA
ATOM     11  C   UNL d   1     -41.324-122.623 -52.735  0.00  0.00     0.162 A 
ATOM     12  C   UNL d   1     -41.566-123.011 -52.050  0.00  0.00     0.286 A 
ATOM     13  O   UNL d   1     -41.822-123.815 -51.985  0.00  0.00    -0.265 OA
ENDBRANCH   1   7
BRANCH   4  14
ATOM     14  O   UNL d   1     -42.199-123.253 -48.296  0.00  0.00    -0.328 OA
ATOM     15  C   UNL d   1     -42.780-123.808 -48.112  0.00  0.00     0.181 C 
ENDBRANCH   4  14
TORSDOF 2
ENDMDL
MODEL 3
REMARK VINA RESULT:      -3.7      2.190      3.074
REMARK  2 active torsions:
REMARK  status: ('A' for Active; 'I' for Inactive)
REMARK    1  A    between atoms: C_5  and  N_1 
REMARK    2  A    between atoms: O_14  and  C_11 
ROOT
ATOM      1  C   UNL d   1     -41.551-122.480 -52.860  0.00  0.00     0.069 A 
ATOM      2  C   UNL d   1     -42.128-122.010 -53.219  0.00  0.00     0.020 A 
ATOM      3  C   UNL d   1     -41.123-123.021 -53.340  0.00  0.00     0.020 A 
ATOM      4  C   UNL d   1     -41.873-122.585 -54.486  0.00  0.00     0.094 A 
ATOM      5  C   UNL d   1     -42.283-122.067 -54.027  0.00  0.00     0.026 A 
ATOM      6  C   UNL d   1     -41.281-123.076 -54.151  0.00  0.00     0.026 A 
ENDROOT
BRANCH   1   7
ATOM      7  N   UNL d   1     -41.413-122.404 -52.046  0.00  0.00    -0.249 N 
ATOM      8  C   UNL d   1     -41.456-123.016 -51.495  0.00  0.00     0.208 A 
ATOM      9  N   UNL d   1     -41.271-122.665 -50.744  0.00  0.00    -0.212 NA
ATOM     10  S   UNL d   1     -41.645-123.817 -51.654  0.00  0.00    -0.038 SA
ATOM     11  C   UNL d   1     -41.128-121.865 -50.885  0.00  0.00     0.162 A 
ATOM     12  C   UNL d   1     -41.217-121.713 -51.689  0.00  0.00     0.286 A 
ATOM     13  O   UNL d   1     -41.123-120.968 -52.079  0.00  0.00    -0.265 OA
ENDBRANCH   1   7
BRANCH   4  14
ATOM     14  O   UNL d   1     -42.048-122.622 -55.290  0.00  0.00    -0.328 OA
ATOM     15  C   UNL d   1     -42.171-121.928 -55.717  0.00  0.00     0.181 C 
ENDBRANCH   4  14
TORSDOF 2
ENDMDL
