MODEL 1
REMARK VINA RESULT:      -7.4      0.000      0.000
REMARK  7 active torsions:
REMARK  status: ('A' for Active; 'I' for Inactive)
REMARK       I    between atoms: C_2  and  N_1 
REMARK    1  A    between atoms: C_7  and  C_2 
REMARK    2  A    between atoms: C_10  and  C_3 
REMARK       I    between atoms: C_4  and  N_6 
REMARK    3  A    between atoms: C_5  and  C_4 
REMARK       I    between atoms: N_13  and  C_5 
REMARK    4  A    between atoms: N_6  and  C_10 
REMARK    5  A    between atoms: C_23  and  N_13 
REMARK    6  A    between atoms: O_22  and  C_24 
REMARK    7  A    between atoms: C_24  and  C_23 
ROOT
ATOM      1  N   UNL d   1      52.139  34.249  53.302  0.00  0.00    -0.250 N 
ATOM      2  C   UNL d   1      51.638  33.755  52.865  0.00  0.00     0.266 C 
ATOM      3  C   UNL d   1      52.864  34.041  53.633  0.00  0.00     0.190 A 
ATOM      4  O   UNL d   1      51.846  32.974  52.724  0.00  0.00    -0.267 OA
ATOM      5  O   UNL d   1      53.176  34.708  54.022  0.00  0.00    -0.285 OA
ATOM      6  C   UNL d   1      52.005  35.041  53.487  0.00  0.00     0.112 A 
ATOM      7  C   UNL d   1      52.643  35.328  53.932  0.00  0.00     0.144 A 
ENDROOT
BRANCH   3   8
ATOM      8  C   UNL d   1      53.217  33.300  53.585  0.00  0.00     0.146 C 
BRANCH   8   9
ATOM      9  N   UNL d   1      54.016  33.234  53.395  0.00  0.00    -0.199 NA
ATOM     10  C   UNL d   1      54.436  32.566  53.619  0.00  0.00     0.337 C 
ATOM     11  O   UNL d   1      55.234  32.501  53.429  0.00  0.00    -0.260 OA
BRANCH  10  12
ATOM     12  C   UNL d   1      54.064  31.955  54.034  0.00  0.00     0.337 C 
ATOM     13  O   UNL d   1      53.863  32.065  54.826  0.00  0.00    -0.260 OA
ATOM     14  N   UNL d   1      53.892  31.238  53.666  0.00  0.00    -0.200 NA
BRANCH  14  15
ATOM     15  C   UNL d   1      53.526  30.632  54.070  0.00  0.00     0.129 C 
BRANCH  15  16
ATOM     16  C   UNL d   1      53.440  29.881  53.734  0.00  0.00     0.137 C 
BRANCH  16  17
ATOM     17  O   UNL d   1      52.971  29.309  54.096  0.00  0.00    -0.325 OA
ATOM     18  C   UNL d   1      53.309  28.722  54.579  0.00  0.00     0.182 C 
ENDBRANCH  16  17
ENDBRANCH  15  16
ENDBRANCH  14  15
ENDBRANCH  10  12
ENDBRANCH   8   9
ENDBRANCH   3   8
BRANCH   2  19
ATOM     19  C   UNL d   1      50.915  34.054  52.565  0.00  0.00     0.057 A 
ATOM     20  C   UNL d   1      50.290  34.201  53.072  0.00  0.00     0.006 A 
ATOM     21  C   UNL d   1      49.577  34.495  52.774  0.00  0.00     0.012 A 
ATOM     22  C   UNL d   1      49.498  34.641  51.969  0.00  0.00     0.058 A 
ATOM     23  C   UNL d   1      50.132  34.491  51.457  0.00  0.00     0.012 A 
ATOM     24 CL   UNL d   1      48.777  34.938  51.671  0.00  0.00    -0.082 Cl
ATOM     25  C   UNL d   1      50.832  34.201  51.757  0.00  0.00     0.006 A 
ENDBRANCH   2  19
TORSDOF 7
ENDMDL
MODEL 2
REMARK VINA RESULT:      -7.2      2.009      4.786
REMARK  7 active torsions:
REMARK  status: ('A' for Active; 'I' for Inactive)
REMARK       I    between atoms: C_2  and  N_1 
REMARK    1  A    between atoms: C_7  and  C_2 
REMARK    2  A    between atoms: C_10  and  C_3 
REMARK       I    between atoms: C_4  and  N_6 
REMARK    3  A    between atoms: C_5  and  C_4 
REMARK       I    between atoms: N_13  and  C_5 
REMARK    4  A    between atoms: N_6  and  C_10 
REMARK    5  A    between atoms: C_23  and  N_13 
REMARK    6  A    between atoms: O_22  and  C_24 
REMARK    7  A    between atoms: C_24  and  C_23 
ROOT
ATOM      1  N   UNL d   1      53.514  32.261  53.549  0.00  0.00    -0.250 N 
ATOM      2  C   UNL d   1      52.879  31.731  53.594  0.00  0.00     0.266 C 
ATOM      3  C   UNL d   1      53.465  33.073  53.420  0.00  0.00     0.190 A 
ATOM      4  O   UNL d   1      52.108  31.998  53.505  0.00  0.00    -0.267 OA
ATOM      5  O   UNL d   1      54.236  33.386  53.418  0.00  0.00    -0.285 OA
ATOM      6  C   UNL d   1      54.313  32.075  53.627  0.00  0.00     0.112 A 
ATOM      7  C   UNL d   1      54.763  32.766  53.546  0.00  0.00     0.144 A 
ENDROOT
BRANCH   3   8
ATOM      8  C   UNL d   1      52.769  33.499  53.311  0.00  0.00     0.146 C 
BRANCH   8   9
ATOM      9  N   UNL d   1      52.660  34.217  53.702  0.00  0.00    -0.199 NA
ATOM     10  C   UNL d   1      52.110  34.755  53.419  0.00  0.00     0.337 C 
ATOM     11  O   UNL d   1      52.000  35.471  53.809  0.00  0.00    -0.260 OA
BRANCH  10  12
ATOM     12  C   UNL d   1      51.662  34.585  52.744  0.00  0.00     0.337 C 
ATOM     13  O   UNL d   1      52.038  34.513  52.015  0.00  0.00    -0.260 OA
ATOM     14  N   UNL d   1      50.845  34.487  52.794  0.00  0.00    -0.200 NA
BRANCH  14  15
ATOM     15  C   UNL d   1      50.399  34.320  52.133  0.00  0.00     0.129 C 
BRANCH  15  16
ATOM     16  C   UNL d   1      49.586  34.472  52.112  0.00  0.00     0.137 C 
BRANCH  16  17
ATOM     17  O   UNL d   1      49.174  34.464  51.399  0.00  0.00    -0.325 OA
ATOM     18  C   UNL d   1      48.418  34.806  51.338  0.00  0.00     0.182 C 
ENDBRANCH  16  17
ENDBRANCH  15  16
ENDBRANCH  14  15
ENDBRANCH  10  12
ENDBRANCH   8   9
ENDBRANCH   3   8
BRANCH   2  19
ATOM     19  C   UNL d   1      53.024  30.916  53.730  0.00  0.00     0.057 A 
ATOM     20  C   UNL d   1      53.038  30.392  53.102  0.00  0.00     0.006 A 
ATOM     21  C   UNL d   1      53.180  29.590  53.237  0.00  0.00     0.012 A 
ATOM     22  C   UNL d   1      53.308  29.319  54.003  0.00  0.00     0.058 A 
ATOM     23  C   UNL d   1      53.294  29.851  54.637  0.00  0.00     0.012 A 
ATOM     24 CL   UNL d   1      53.452  28.508  54.137  0.00  0.00    -0.082 Cl
ATOM     25  C   UNL d   1      53.152  30.642  54.497  0.00  0.00     0.006 A 
ENDBRANCH   2  19
TORSDOF 7
ENDMDL
MODEL 3
REMARK VINA RESULT:      -6.3      2.431      5.182
REMARK  7 active torsions:
REMARK  status: ('A' for Active; 'I' for Inactive)
REMARK       I    between atoms: C_2  and  N_1 
REMARK    1  A    between atoms: C_7  and  C_2 
REMARK    2  A    between atoms: C_10  and  C_3 
REMARK       I    between atoms: C_4  and  N_6 
REMARK    3  A    between atoms: C_5  and  C_4 
REMARK       I    between atoms: N_13  and  C_5 
REMARK    4  A    between atoms: N_6  and  C_10 
REMARK    5  A    between atoms: C_23  and  N_13 
REMARK    6  A    between atoms: O_22  and  C_24 
REMARK    7  A    between atoms: C_24  and  C_23 
ROOT
ATOM      1  N   UNL d   1      52.757  33.090  53.380  0.00  0.00    -0.250 N 
ATOM      2  C   UNL d   1      52.970  33.750  53.834  0.00  0.00     0.266 C 
ATOM      3  C   UNL d   1      52.095  33.024  52.894  0.00  0.00     0.190 A 
ATOM      4  O   UNL d   1      52.505  34.426  53.826  0.00  0.00    -0.267 OA
ATOM      5  O   UNL d   1      52.100  32.268  52.546  0.00  0.00    -0.285 OA
ATOM      6  C   UNL d   1      53.167  32.377  53.333  0.00  0.00     0.112 A 
ATOM      7  C   UNL d   1      52.764  31.866  52.818  0.00  0.00     0.144 A 
ENDROOT
BRANCH   3   8
ATOM      8  C   UNL d   1      51.529  33.609  52.774  0.00  0.00     0.146 C 
BRANCH   8   9
ATOM      9  N   UNL d   1      51.288  33.799  52.009  0.00  0.00    -0.199 NA
ATOM     10  C   UNL d   1      50.550  34.134  51.886  0.00  0.00     0.337 C 
ATOM     11  O   UNL d   1      50.309  34.324  51.122  0.00  0.00    -0.260 OA
BRANCH  10  12
ATOM     12  C   UNL d   1      50.043  34.284  52.523  0.00  0.00     0.337 C 
ATOM     13  O   UNL d   1      49.816  33.664  53.016  0.00  0.00    -0.260 OA
ATOM     14  N   UNL d   1      49.764  35.046  52.670  0.00  0.00    -0.200 NA
BRANCH  14  15
ATOM     15  C   UNL d   1      49.266  35.200  53.295  0.00  0.00     0.129 C 
BRANCH  15  16
ATOM     16  C   UNL d   1      48.680  35.782  53.246  0.00  0.00     0.137 C 
BRANCH  16  17
ATOM     17  O   UNL d   1      48.512  36.265  53.891  0.00  0.00    -0.325 OA
ATOM     18  C   UNL d   1      47.809  36.709  53.921  0.00  0.00     0.182 C 
ENDBRANCH  16  17
ENDBRANCH  15  16
ENDBRANCH  14  15
ENDBRANCH  10  12
ENDBRANCH   8   9
ENDBRANCH   3   8
BRANCH   2  19
ATOM     19  C   UNL d   1      53.665  33.728  54.303  0.00  0.00     0.057 A 
ATOM     20  C   UNL d   1      54.395  33.867  53.960  0.00  0.00     0.006 A 
ATOM     21  C   UNL d   1      55.079  33.845  54.424  0.00  0.00     0.012 A 
ATOM     22  C   UNL d   1      55.024  33.684  55.228  0.00  0.00     0.058 A 
ATOM     23  C   UNL d   1      54.284  33.543  55.572  0.00  0.00     0.012 A 
ATOM     24 CL   UNL d   1      55.716  33.662  55.694  0.00  0.00    -0.082 Cl
ATOM     25  C   UNL d   1      53.614  33.566  55.110  0.00  0.00     0.006 A 
ENDBRANCH   2  19
TORSDOF 7
ENDMDL
MODEL 4
REMARK VINA RESULT:      -6.0      1.834      2.871
REMARK  7 active torsions:
REMARK  status: ('A' for Active; 'I' for Inactive)
REMARK       I    between atoms: C_2  and  N_1 
REMARK    1  A    between atoms: C_7  and  C_2 
REMARK    2  A    between atoms: C_10  and  C_3 
REMARK       I    between atoms: C_4  and  N_6 
REMARK    3  A    between atoms: C_5  and  C_4 
REMARK       I    between atoms: N_13  and  C_5 
REMARK    4  A    between atoms: N_6  and  C_10 
REMARK    5  A    between atoms: C_23  and  N_13 
REMARK    6  A    between atoms: O_22  and  C_24 
REMARK    7  A    between atoms: C_24  and  C_23 
ROOT
ATOM      1  N   UNL d   1      52.272  33.121  53.470  0.00  0.00    -0.250 N 
ATOM      2  C   UNL d   1      53.004  33.420  53.718  0.00  0.00     0.266 C 
ATOM      3  C   UNL d   1      52.127  32.367  53.170  0.00  0.00     0.190 A 
ATOM      4  O   UNL d   1      53.677  32.952  53.678  0.00  0.00    -0.267 OA
ATOM      5  O   UNL d   1      51.316  32.307  52.993  0.00  0.00    -0.285 OA
ATOM      6  C   UNL d   1      51.553  33.522  53.477  0.00  0.00     0.112 A 
ATOM      7  C   UNL d   1      50.959  33.023  53.183  0.00  0.00     0.144 A 
ENDROOT
BRANCH   3   8
ATOM      8  C   UNL d   1      52.691  31.778  53.065  0.00  0.00     0.146 C 
BRANCH   8   9
ATOM      9  N   UNL d   1      52.660  31.290  52.402  0.00  0.00    -0.199 NA
ATOM     10  C   UNL d   1      52.993  30.541  52.430  0.00  0.00     0.337 C 
ATOM     11  O   UNL d   1      52.962  30.054  51.767  0.00  0.00    -0.260 OA
BRANCH  10  12
ATOM     12  C   UNL d   1      53.361  30.269  53.120  0.00  0.00     0.337 C 
ATOM     13  O   UNL d   1      54.096  30.573  53.335  0.00  0.00    -0.260 OA
ATOM     14  N   UNL d   1      53.001  29.699  53.593  0.00  0.00    -0.200 NA
BRANCH  14  15
ATOM     15  C   UNL d   1      53.358  29.427  54.273  0.00  0.00     0.129 C 
BRANCH  15  16
ATOM     16  C   UNL d   1      53.002  28.848  54.745  0.00  0.00     0.137 C 
BRANCH  16  17
ATOM     17  O   UNL d   1      53.442  28.430  55.301  0.00  0.00    -0.325 OA
ATOM     18  C   UNL d   1      53.315  28.539  56.116  0.00  0.00     0.182 C 
ENDBRANCH  16  17
ENDBRANCH  15  16
ENDBRANCH  14  15
ENDBRANCH  10  12
ENDBRANCH   8   9
ENDBRANCH   3   8
BRANCH   2  19
ATOM     19  C   UNL d   1      53.058  34.204  54.011  0.00  0.00     0.057 A 
ATOM     20  C   UNL d   1      53.066  34.836  53.492  0.00  0.00     0.006 A 
ATOM     21  C   UNL d   1      53.119  35.607  53.782  0.00  0.00     0.012 A 
ATOM     22  C   UNL d   1      53.163  35.739  54.592  0.00  0.00     0.058 A 
ATOM     23  C   UNL d   1      53.155  35.098  55.116  0.00  0.00     0.012 A 
ATOM     24 CL   UNL d   1      53.217  36.519  54.883  0.00  0.00    -0.082 Cl
ATOM     25  C   UNL d   1      53.102  34.339  54.824  0.00  0.00     0.006 A 
ENDBRANCH   2  19
TORSDOF 7
ENDMDL
MODEL 5
REMARK VINA RESULT:      -4.8      2.546      5.205
REMARK  7 active torsions:
REMARK  status: ('A' for Active; 'I' for Inactive)
REMARK       I    between atoms: C_2  and  N_1 
REMARK    1  A    between atoms: C_7  and  C_2 
REMARK    2  A    between atoms: C_10  and  C_3 
REMARK       I    between atoms: C_4  and  N_6 
REMARK    3  A    between atoms: C_5  and  C_4 
REMARK       I    between atoms: N_13  and  C_5 
REMARK    4  A    between atoms: N_6  and  C_10 
REMARK    5  A    between atoms: C_23  and  N_13 
REMARK    6  A    between atoms: O_22  and  C_24 
REMARK    7  A    between atoms: C_24  and  C_23 
ROOT
ATOM      1  N   UNL d   1      52.200  33.495  53.003  0.00  0.00    -0.250 N 
ATOM      2  C   UNL d   1      51.932  32.725  53.146  0.00  0.00     0.266 C 
ATOM      3  C   UNL d   1      51.731  34.158  52.860  0.00  0.00     0.190 A 
ATOM      4  O   UNL d   1      51.128  32.560  53.156  0.00  0.00    -0.267 OA
ATOM      5  O   UNL d   1      52.231  34.813  52.745  0.00  0.00    -0.285 OA
ATOM      6  C   UNL d   1      52.985  33.743  52.976  0.00  0.00     0.112 A 
ATOM      7  C   UNL d   1      53.009  34.556  52.817  0.00  0.00     0.144 A 
ENDROOT
BRANCH   3   8
ATOM      8  C   UNL d   1      50.909  34.166  52.836  0.00  0.00     0.146 C 
BRANCH   8   9
ATOM      9  N   UNL d   1      50.518  34.304  52.124  0.00  0.00    -0.199 NA
ATOM     10  C   UNL d   1      49.770  34.640  52.127  0.00  0.00     0.337 C 
ATOM     11  O   UNL d   1      49.380  34.778  51.416  0.00  0.00    -0.260 OA
BRANCH  10  12
ATOM     12  C   UNL d   1      49.402  34.841  52.840  0.00  0.00     0.337 C 
ATOM     13  O   UNL d   1      49.463  34.333  53.487  0.00  0.00    -0.260 OA
ATOM     14  N   UNL d   1      48.975  35.542  52.912  0.00  0.00    -0.200 NA
BRANCH  14  15
ATOM     15  C   UNL d   1      48.610  35.745  53.611  0.00  0.00     0.129 C 
BRANCH  15  16
ATOM     16  C   UNL d   1      48.078  36.378  53.651  0.00  0.00     0.137 C 
BRANCH  16  17
ATOM     17  O   UNL d   1      47.872  36.709  54.376  0.00  0.00    -0.325 OA
ATOM     18  C   UNL d   1      47.100  36.632  54.678  0.00  0.00     0.182 C 
ENDBRANCH  16  17
ENDBRANCH  15  16
ENDBRANCH  14  15
ENDBRANCH  10  12
ENDBRANCH   8   9
ENDBRANCH   3   8
BRANCH   2  19
ATOM     19  C   UNL d   1      52.484  32.109  53.282  0.00  0.00     0.057 A 
ATOM     20  C   UNL d   1      52.968  32.130  53.942  0.00  0.00     0.006 A 
ATOM     21  C   UNL d   1      53.512  31.523  54.074  0.00  0.00     0.012 A 
ATOM     22  C   UNL d   1      53.566  30.897  53.543  0.00  0.00     0.058 A 
ATOM     23  C   UNL d   1      53.076  30.878  52.876  0.00  0.00     0.012 A 
ATOM     24 CL   UNL d   1      54.116  30.285  53.679  0.00  0.00    -0.082 Cl
ATOM     25  C   UNL d   1      52.541  31.480  52.751  0.00  0.00     0.006 A 
ENDBRANCH   2  19
TORSDOF 7
ENDMDL
MODEL 6
REMARK VINA RESULT:      -4.7      2.369      3.832
REMARK  7 active torsions:
REMARK  status: ('A' for Active; 'I' for Inactive)
REMARK       I    between atoms: C_2  and  N_1 
REMARK    1  A    between atoms: C_7  and  C_2 
REMARK    2  A    between atoms: C_10  and  C_3 
REMARK       I    between atoms: C_4  and  N_6 
REMARK    3  A    between atoms: C_5  and  C_4 
REMARK       I    between atoms: N_13  and  C_5 
REMARK    4  A    between atoms: N_6  and  C_10 
REMARK    5  A    between atoms: C_23  and  N_13 
REMARK    6  A    between atoms: O_22  and  C_24 
REMARK    7  A    between atoms: C_24  and  C_23 
ROOT
ATOM      1  N   UNL d   1      53.317  32.631  53.527  0.00  0.00    -0.250 N 
ATOM      2  C   UNL d   1      53.906  32.395  54.059  0.00  0.00     0.266 C 
ATOM      3  C   UNL d   1      52.814  32.136  53.102  0.00  0.00     0.190 A 
ATOM      4  O   UNL d   1      54.035  31.598  54.208  0.00  0.00    -0.267 OA
ATOM      5  O   UNL d   1      52.312  32.609  52.636  0.00  0.00    -0.285 OA
ATOM      6  C   UNL d   1      53.125  33.406  53.323  0.00  0.00     0.112 A 
ATOM      7  C   UNL d   1      52.504  33.397  52.773  0.00  0.00     0.144 A 
ENDROOT
BRANCH   3   8
ATOM      8  C   UNL d   1      52.812  31.314  53.135  0.00  0.00     0.146 C 
BRANCH   8   9
ATOM      9  N   UNL d   1      52.874  30.873  52.442  0.00  0.00    -0.199 NA
ATOM     10  C   UNL d   1      52.733  30.066  52.458  0.00  0.00     0.337 C 
ATOM     11  O   UNL d   1      52.795  29.625  51.766  0.00  0.00    -0.260 OA
BRANCH  10  12
ATOM     12  C   UNL d   1      52.529  29.688  53.165  0.00  0.00     0.337 C 
ATOM     13  O   UNL d   1      51.757  29.744  53.448  0.00  0.00    -0.260 OA
ATOM     14  N   UNL d   1      53.088  29.256  53.590  0.00  0.00    -0.200 NA
BRANCH  14  15
ATOM     15  C   UNL d   1      52.893  28.882  54.287  0.00  0.00     0.129 C 
BRANCH  15  16
ATOM     16  C   UNL d   1      53.470  28.524  54.760  0.00  0.00     0.137 C 
BRANCH  16  17
ATOM     17  O   UNL d   1      53.291  28.271  55.523  0.00  0.00    -0.325 OA
ATOM     18  C   UNL d   1      53.392  28.778  56.175  0.00  0.00     0.182 C 
ENDBRANCH  16  17
ENDBRANCH  15  16
ENDBRANCH  14  15
ENDBRANCH  10  12
ENDBRANCH   8   9
ENDBRANCH   3   8
BRANCH   2  19
ATOM     19  C   UNL d   1      54.373  32.972  54.449  0.00  0.00     0.057 A 
ATOM     20  C   UNL d   1      55.049  33.262  54.091  0.00  0.00     0.006 A 
ATOM     21  C   UNL d   1      55.508  33.831  54.476  0.00  0.00     0.012 A 
ATOM     22  C   UNL d   1      55.286  34.104  55.218  0.00  0.00     0.058 A 
ATOM     23  C   UNL d   1      54.601  33.809  55.579  0.00  0.00     0.012 A 
ATOM     24 CL   UNL d   1      55.751  34.678  55.605  0.00  0.00    -0.082 Cl
ATOM     25  C   UNL d   1      54.152  33.248  55.194  0.00  0.00     0.006 A 
ENDBRANCH   2  19
TORSDOF 7
ENDMDL
MODEL 7
REMARK VINA RESULT:      -4.7      1.540      2.302
REMARK  7 active torsions:
REMARK  status: ('A' for Active; 'I' for Inactive)
REMARK       I    between atoms: C_2  and  N_1 
REMARK    1  A    between atoms: C_7  and  C_2 
REMARK    2  A    between atoms: C_10  and  C_3 
REMARK       I    between atoms: C_4  and  N_6 
REMARK    3  A    between atoms: C_5  and  C_4 
REMARK       I    between atoms: N_13  and  C_5 
REMARK    4  A    between atoms: N_6  and  C_10 
REMARK    5  A    between atoms: C_23  and  N_13 
REMARK    6  A    between atoms: O_22  and  C_24 
REMARK    7  A    between atoms: C_24  and  C_23 
ROOT
ATOM      1  N   UNL d   1      51.257  33.982  52.461  0.00  0.00    -0.250 N 
ATOM      2  C   UNL d   1      50.577  33.841  52.912  0.00  0.00     0.266 C 
ATOM      3  C   UNL d   1      51.942  33.524  52.450  0.00  0.00     0.190 A 
ATOM      4  O   UNL d   1      50.539  33.190  53.411  0.00  0.00    -0.267 OA
ATOM      5  O   UNL d   1      52.482  33.871  51.920  0.00  0.00    -0.285 OA
ATOM      6  C   UNL d   1      51.375  34.609  51.939  0.00  0.00     0.112 A 
ATOM      7  C   UNL d   1      52.130  34.544  51.602  0.00  0.00     0.144 A 
ENDROOT
BRANCH   3   8
ATOM      8  C   UNL d   1      52.067  32.841  52.891  0.00  0.00     0.146 C 
BRANCH   8   9
ATOM      9  N   UNL d   1      52.325  32.152  52.519  0.00  0.00    -0.199 NA
ATOM     10  C   UNL d   1      52.846  31.650  52.906  0.00  0.00     0.337 C 
ATOM     11  O   UNL d   1      53.103  30.962  52.535  0.00  0.00    -0.260 OA
BRANCH  10  12
ATOM     12  C   UNL d   1      53.116  31.829  53.667  0.00  0.00     0.337 C 
ATOM     13  O   UNL d   1      52.681  31.581  54.321  0.00  0.00    -0.260 OA
ATOM     14  N   UNL d   1      53.815  32.252  53.778  0.00  0.00    -0.200 NA
BRANCH  14  15
ATOM     15  C   UNL d   1      54.086  32.431  54.525  0.00  0.00     0.129 C 
BRANCH  15  16
ATOM     16  C   UNL d   1      54.743  32.921  54.639  0.00  0.00     0.137 C 
BRANCH  16  17
ATOM     17  O   UNL d   1      54.859  33.310  55.355  0.00  0.00    -0.325 OA
ATOM     18  C   UNL d   1      55.287  34.022  55.391  0.00  0.00     0.182 C 
ENDBRANCH  16  17
ENDBRANCH  15  16
ENDBRANCH  14  15
ENDBRANCH  10  12
ENDBRANCH   8   9
ENDBRANCH   3   8
BRANCH   2  19
ATOM     19  C   UNL d   1      49.924  34.364  52.859  0.00  0.00     0.057 A 
ATOM     20  C   UNL d   1      49.413  34.317  52.222  0.00  0.00     0.006 A 
ATOM     21  C   UNL d   1      48.769  34.833  52.171  0.00  0.00     0.012 A 
ATOM     22  C   UNL d   1      48.644  35.392  52.760  0.00  0.00     0.058 A 
ATOM     23  C   UNL d   1      49.162  35.437  53.405  0.00  0.00     0.012 A 
ATOM     24 CL   UNL d   1      47.993  35.912  52.707  0.00  0.00    -0.082 Cl
ATOM     25  C   UNL d   1      49.795  34.925  53.449  0.00  0.00     0.006 A 
ENDBRANCH   2  19
TORSDOF 7
ENDMDL
MODEL 8
REMARK VINA RESULT:      -4.4      2.081      3.270
REMARK  7 active torsions:
REMARK  status: ('A' for Active; 'I' for Inactive)
REMARK       I    between atoms: C_2  and  N_1 
REMARK    1  A    between atoms: C_7  and  C_2 
REMARK    2  A    between atoms: C_10  and  C_3 
REMARK       I    between atoms: C_4  and  N_6 
REMARK    3  A    between atoms: C_5  and  C_4 
REMARK       I    between atoms: N_13  and  C_5 
REMARK    4  A    between atoms: N_6  and  C_10 
REMARK    5  A    between atoms: C_23  and  N_13 
REMARK    6  A    between atoms: O_22  and  C_24 
REMARK    7  A    between atoms: C_24  and  C_23 
ROOT
ATOM      1  N   UNL d   1      49.157  34.853  52.116  0.00  0.00    -0.250 N 
ATOM      2  C   UNL d   1      48.903  35.238  52.804  0.00  0.00     0.266 C 
ATOM      3  C   UNL d   1      49.875  34.465  52.008  0.00  0.00     0.190 A 
ATOM      4  O   UNL d   1      49.385  35.259  53.468  0.00  0.00    -0.267 OA
ATOM      5  O   UNL d   1      49.895  34.159  51.234  0.00  0.00    -0.285 OA
ATOM      6  C   UNL d   1      48.736  34.787  51.410  0.00  0.00     0.112 A 
ATOM      7  C   UNL d   1      49.189  34.359  50.863  0.00  0.00     0.144 A 
ENDROOT
BRANCH   3   8
ATOM      8  C   UNL d   1      50.469  34.393  52.573  0.00  0.00     0.146 C 
BRANCH   8   9
ATOM      9  N   UNL d   1      51.190  34.779  52.465  0.00  0.00    -0.199 NA
ATOM     10  C   UNL d   1      51.880  34.440  52.748  0.00  0.00     0.337 C 
ATOM     11  O   UNL d   1      52.599  34.826  52.641  0.00  0.00    -0.260 OA
BRANCH  10  12
ATOM     12  C   UNL d   1      51.862  33.713  53.143  0.00  0.00     0.337 C 
ATOM     13  O   UNL d   1      51.495  33.660  53.879  0.00  0.00    -0.260 OA
ATOM     14  N   UNL d   1      52.206  33.043  52.809  0.00  0.00    -0.200 NA
BRANCH  14  15
ATOM     15  C   UNL d   1      52.191  32.325  53.193  0.00  0.00     0.129 C 
BRANCH  15  16
ATOM     16  C   UNL d   1      52.654  31.689  52.935  0.00  0.00     0.137 C 
BRANCH  16  17
ATOM     17  O   UNL d   1      52.549  30.936  53.252  0.00  0.00    -0.325 OA
ATOM     18  C   UNL d   1      52.933  30.276  52.921  0.00  0.00     0.182 C 
ENDBRANCH  16  17
ENDBRANCH  15  16
ENDBRANCH  14  15
ENDBRANCH  10  12
ENDBRANCH   8   9
ENDBRANCH   3   8
BRANCH   2  19
ATOM     19  C   UNL d   1      48.151  35.609  52.823  0.00  0.00     0.057 A 
ATOM     20  C   UNL d   1      47.532  35.259  53.227  0.00  0.00     0.006 A 
ATOM     21  C   UNL d   1      46.792  35.625  53.245  0.00  0.00     0.012 A 
ATOM     22  C   UNL d   1      46.679  36.341  52.857  0.00  0.00     0.058 A 
ATOM     23  C   UNL d   1      47.307  36.694  52.449  0.00  0.00     0.012 A 
ATOM     24 CL   UNL d   1      45.930  36.709  52.876  0.00  0.00    -0.082 Cl
ATOM     25  C   UNL d   1      48.035  36.327  52.435  0.00  0.00     0.006 A 
ENDBRANCH   2  19
TORSDOF 7
ENDMDL
