MODEL 1
REMARK VINA RESULT:      29.3      0.000      0.000
REMARK  4 active torsions:
REMARK  status: ('A' for Active; 'I' for Inactive)
REMARK    1  A    between atoms: C_4  and  S_1 
REMARK    2  A    between atoms: N_5  and  S_1 
REMARK    3  A    between atoms: C_3  and  C_12 
REMARK    4  A    between atoms: C_12  and  N_5 
ROOT
ATOM      1  S   UNL d   1      13.845  12.560  -1.722  0.00  0.00     0.285 S 
ATOM      2  O   UNL d   1      13.533  13.322  -1.679  0.00  0.00    -0.198 OA
ATOM      3  O   UNL d   1      14.167  11.785  -1.757  0.00  0.00    -0.198 OA
ENDROOT
BRANCH   1   4
ATOM      4  C   UNL d   1      13.577  12.485  -2.496  0.00  0.00     0.105 A 
ATOM      5  C   UNL d   1      13.808  13.046  -3.070  0.00  0.00     0.013 A 
ATOM      6  C   UNL d   1      13.526  12.951  -3.841  0.00  0.00     0.001 A 
ATOM      7  C   UNL d   1      13.758  13.511  -4.411  0.00  0.00     0.000 A 
ATOM      8  C   UNL d   1      13.034  12.325  -4.044  0.00  0.00     0.000 A 
ATOM      9  C   UNL d   1      13.483  13.426  -5.185  0.00  0.00     0.000 A 
ATOM     10  C   UNL d   1      12.989  12.801  -5.393  0.00  0.00     0.000 A 
ATOM     11  C   UNL d   1      12.769  12.252  -4.814  0.00  0.00     0.000 A 
ATOM     12  C   UNL d   1      12.819  11.788  -3.473  0.00  0.00     0.001 A 
ATOM     13  C   UNL d   1      13.087  11.862  -2.699  0.00  0.00     0.013 A 
ENDBRANCH   1   4
BRANCH   1  14
ATOM     14  N   UNL d   1      14.121  12.627  -0.937  0.00  0.00    -0.155 NA
BRANCH  14  15
ATOM     15  C   UNL d   1      14.924  12.718  -0.780  0.00  0.00     0.132 C 
BRANCH  15  16
ATOM     16  C   UNL d   1      15.227  13.460  -0.550  0.00  0.00     0.108 A 
ATOM     17  N   UNL d   1      14.887  14.187  -0.718  0.00  0.00    -0.237 NA
ATOM     18  C   UNL d   1      15.369  14.782  -0.386  0.00  0.00     0.111 A 
ATOM     19  C   UNL d   1      15.234  15.603  -0.422  0.00  0.00     0.028 C 
ATOM     20  S   UNL d   1      16.004  14.405  -0.017  0.00  0.00    -0.066 SA
ATOM     21  C   UNL d   1      15.916  13.587  -0.119  0.00  0.00     0.058 A 
ENDBRANCH  15  16
ENDBRANCH  14  15
ENDBRANCH   1  14
TORSDOF 4
ENDMDL
MODEL 2
REMARK VINA RESULT:      32.0      2.179      3.981
REMARK  4 active torsions:
REMARK  status: ('A' for Active; 'I' for Inactive)
REMARK    1  A    between atoms: C_4  and  S_1 
REMARK    2  A    between atoms: N_5  and  S_1 
REMARK    3  A    between atoms: C_3  and  C_12 
REMARK    4  A    between atoms: C_12  and  N_5 
ROOT
ATOM      1  S   UNL d   1      13.575  12.143  -3.385  0.00  0.00     0.285 S 
ATOM      2  O   UNL d   1      14.363  12.258  -3.601  0.00  0.00    -0.198 OA
ATOM      3  O   UNL d   1      12.770  12.027  -3.176  0.00  0.00    -0.198 OA
ENDROOT
BRANCH   1   4
ATOM      4  C   UNL d   1      13.794  12.060  -2.597  0.00  0.00     0.105 A 
ATOM      5  C   UNL d   1      14.604  12.032  -2.393  0.00  0.00     0.013 A 
ATOM      6  C   UNL d   1      14.800  11.948  -1.595  0.00  0.00     0.001 A 
ATOM      7  C   UNL d   1      15.607  11.920  -1.395  0.00  0.00     0.000 A 
ATOM      8  C   UNL d   1      14.221  11.893  -1.014  0.00  0.00     0.000 A 
ATOM      9  C   UNL d   1      15.815  11.836  -0.599  0.00  0.00     0.000 A 
ATOM     10  C   UNL d   1      15.239  11.781  -0.014  0.00  0.00     0.000 A 
ATOM     11  C   UNL d   1      14.441  11.810  -0.231  0.00  0.00     0.000 A 
ATOM     12  C   UNL d   1      13.438  11.922  -1.229  0.00  0.00     0.001 A 
ATOM     13  C   UNL d   1      13.219  12.005  -2.018  0.00  0.00     0.013 A 
ENDBRANCH   1   4
BRANCH   1  14
ATOM     14  N   UNL d   1      13.343  12.226  -4.183  0.00  0.00    -0.155 NA
BRANCH  14  15
ATOM     15  C   UNL d   1      12.850  12.842  -4.415  0.00  0.00     0.132 C 
BRANCH  15  16
ATOM     16  C   UNL d   1      13.161  13.507  -4.810  0.00  0.00     0.108 A 
ATOM     17  N   UNL d   1      13.242  14.257  -4.489  0.00  0.00    -0.237 NA
ATOM     18  C   UNL d   1      13.575  14.754  -5.071  0.00  0.00     0.111 A 
ATOM     19  C   UNL d   1      13.754  15.563  -4.984  0.00  0.00     0.028 C 
ATOM     20  S   UNL d   1      13.694  14.295  -5.745  0.00  0.00    -0.066 SA
ATOM     21  C   UNL d   1      13.438  13.523  -5.584  0.00  0.00     0.058 A 
ENDBRANCH  15  16
ENDBRANCH  14  15
ENDBRANCH   1  14
TORSDOF 4
ENDMDL
