MODEL 1
REMARK VINA RESULT:      30.0      0.000      0.000
REMARK  5 active torsions:
REMARK  status: ('A' for Active; 'I' for Inactive)
REMARK       I    between atoms: C_3  and  N_1 
REMARK    1  A    between atoms: C_8  and  N_2 
REMARK    2  A    between atoms: C_11  and  C_3 
REMARK    3  A    between atoms: S_10  and  C_11 
REMARK    4  A    between atoms: C_13  and  S_10 
REMARK    5  A    between atoms: C_12  and  C_13 
ROOT
ATOM      1  N   UNL d   1      14.195  12.412  -1.585  0.00  0.00    -0.269 N 
ATOM      2  N   UNL d   1      13.622  12.453  -3.128  0.00  0.00    -0.301 N 
ATOM      3  C   UNL d   1      14.482  12.394  -0.802  0.00  0.00     0.259 C 
ATOM      4  C   UNL d   1      13.529  12.858  -1.761  0.00  0.00     0.102 A 
ATOM      5  C   UNL d   1      14.576  11.985  -2.179  0.00  0.00     0.102 A 
ATOM      6  C   UNL d   1      14.291  12.005  -2.949  0.00  0.00     0.100 A 
ATOM      7  C   UNL d   1      13.240  12.880  -2.533  0.00  0.00     0.100 A 
ATOM      8  O   UNL d   1      15.152  11.949  -0.608  0.00  0.00    -0.267 OA
ENDROOT
BRANCH   3   9
ATOM      9  C   UNL d   1      14.093  12.828  -0.201  0.00  0.00     0.125 C 
BRANCH   9  10
ATOM     10  S   UNL d   1      14.354  13.574  -0.014  0.00  0.00    -0.094 SA
BRANCH  10  11
ATOM     11  C   UNL d   1      15.129  13.792  -0.189  0.00  0.00     0.035 C 
BRANCH  11  12
ATOM     12  C   UNL d   1      15.319  14.581  -0.312  0.00  0.00     0.006 A 
ATOM     13  C   UNL d   1      14.802  15.066  -0.735  0.00  0.00     0.001 A 
ATOM     14  C   UNL d   1      14.991  15.860  -0.860  0.00  0.00     0.000 A 
ATOM     15  C   UNL d   1      15.694  16.168  -0.562  0.00  0.00     0.000 A 
ATOM     16  C   UNL d   1      16.211  15.684  -0.139  0.00  0.00     0.000 A 
ATOM     17  C   UNL d   1      16.023  14.890  -0.014  0.00  0.00     0.001 A 
ENDBRANCH  11  12
ENDBRANCH  10  11
ENDBRANCH   9  10
ENDBRANCH   3   9
BRANCH   2  18
ATOM     18  C   UNL d   1      13.339  12.472  -3.894  0.00  0.00     0.064 A 
ATOM     19  C   UNL d   1      13.067  13.178  -4.219  0.00  0.00     0.018 A 
ATOM     20  C   UNL d   1      12.783  13.193  -4.994  0.00  0.00     0.002 A 
ATOM     21  C   UNL d   1      12.771  12.500  -5.442  0.00  0.00     0.000 A 
ATOM     22  C   UNL d   1      13.043  11.794  -5.116  0.00  0.00     0.002 A 
ATOM     23  C   UNL d   1      13.327  11.779  -4.342  0.00  0.00     0.018 A 
ENDBRANCH   2  18
TORSDOF 5
ENDMDL
MODEL 2
REMARK VINA RESULT:      30.7      1.085      4.370
REMARK  5 active torsions:
REMARK  status: ('A' for Active; 'I' for Inactive)
REMARK       I    between atoms: C_3  and  N_1 
REMARK    1  A    between atoms: C_8  and  N_2 
REMARK    2  A    between atoms: C_11  and  C_3 
REMARK    3  A    between atoms: S_10  and  C_11 
REMARK    4  A    between atoms: C_13  and  S_10 
REMARK    5  A    between atoms: C_12  and  C_13 
ROOT
ATOM      1  N   UNL d   1      14.772  13.268  -0.829  0.00  0.00    -0.269 N 
ATOM      2  N   UNL d   1      15.047  14.884  -0.991  0.00  0.00    -0.301 N 
ATOM      3  C   UNL d   1      14.633  12.450  -0.752  0.00  0.00     0.259 C 
ATOM      4  C   UNL d   1      14.701  13.622  -1.566  0.00  0.00     0.102 A 
ATOM      5  C   UNL d   1      14.981  13.720  -0.171  0.00  0.00     0.102 A 
ATOM      6  C   UNL d   1      15.118  14.526  -0.251  0.00  0.00     0.100 A 
ATOM      7  C   UNL d   1      14.838  14.432  -1.649  0.00  0.00     0.100 A 
ATOM      8  O   UNL d   1      14.700  12.078  -0.017  0.00  0.00    -0.267 OA
ENDROOT
BRANCH   3   9
ATOM      9  C   UNL d   1      14.421  11.994  -1.422  0.00  0.00     0.125 C 
BRANCH   9  10
ATOM     10  S   UNL d   1      14.039  12.351  -2.044  0.00  0.00    -0.094 SA
BRANCH  10  11
ATOM     11  C   UNL d   1      13.651  11.889  -2.605  0.00  0.00     0.035 C 
BRANCH  11  12
ATOM     12  C   UNL d   1      13.445  12.209  -3.333  0.00  0.00     0.006 A 
ATOM     13  C   UNL d   1      13.710  12.963  -3.539  0.00  0.00     0.001 A 
ATOM     14  C   UNL d   1      13.504  13.287  -4.269  0.00  0.00     0.000 A 
ATOM     15  C   UNL d   1      13.035  12.857  -4.793  0.00  0.00     0.000 A 
ATOM     16  C   UNL d   1      12.770  12.103  -4.588  0.00  0.00     0.000 A 
ATOM     17  C   UNL d   1      12.976  11.779  -3.856  0.00  0.00     0.001 A 
ENDBRANCH  11  12
ENDBRANCH  10  11
ENDBRANCH   9  10
ENDBRANCH   3   9
BRANCH   2  18
ATOM     18  C   UNL d   1      15.183  15.685  -1.069  0.00  0.00     0.064 A 
ATOM     19  C   UNL d   1      15.533  16.109  -0.454  0.00  0.00     0.018 A 
ATOM     20  C   UNL d   1      15.669  16.919  -0.536  0.00  0.00     0.002 A 
ATOM     21  C   UNL d   1      15.455  17.304  -1.233  0.00  0.00     0.000 A 
ATOM     22  C   UNL d   1      15.106  16.880  -1.848  0.00  0.00     0.002 A 
ATOM     23  C   UNL d   1      14.970  16.072  -1.766  0.00  0.00     0.018 A 
ENDBRANCH   2  18
TORSDOF 5
ENDMDL
