MODEL 1
REMARK VINA RESULT:      26.2      0.000      0.000
REMARK  6 active torsions:
REMARK  status: ('A' for Active; 'I' for Inactive)
REMARK       I    between atoms: N_2  and  C_1 
REMARK    1  A    between atoms: C_14  and  C_1 
REMARK    2  A    between atoms: C_6  and  N_2 
REMARK    3  A    between atoms: C_4  and  O_13 
REMARK    4  A    between atoms: O_13  and  C_18 
REMARK    5  A    between atoms: C_19  and  C_14 
REMARK    6  A    between atoms: C_18  and  C_19 
ROOT
ATOM      1  C   UNL d   1      13.596  12.571  -1.503  0.00  0.00     0.078 C 
ENDROOT
BRANCH   1   2
ATOM      2  C   UNL d   1      14.100  12.600  -0.853  0.00  0.00     0.328 C 
ATOM      3  N   UNL d   1      14.529  13.295  -0.685  0.00  0.00    -0.365 NA
ATOM      4  O   UNL d   1      14.183  11.941  -0.365  0.00  0.00    -0.251 OA
BRANCH   3   5
ATOM      5  C   UNL d   1      14.950  13.977  -0.519  0.00  0.00     0.135 A 
ATOM      6  C   UNL d   1      14.544  14.705  -0.438  0.00  0.00     0.033 A 
ATOM      7  C   UNL d   1      14.979  15.389  -0.270  0.00  0.00     0.009 A 
ATOM      8  C   UNL d   1      15.799  15.357  -0.182  0.00  0.00     0.035 A 
ATOM      9  C   UNL d   1      16.199  14.640  -0.262  0.00  0.00     0.009 A 
ATOM     10 BR   UNL d   1      16.214  16.050  -0.015  0.00  0.00    -0.049 Br
ATOM     11  C   UNL d   1      15.770  13.945  -0.431  0.00  0.00     0.033 A 
ENDBRANCH   3   5
ENDBRANCH   1   2
BRANCH   1  12
ATOM     12  C   UNL d   1      13.427  11.859  -1.867  0.00  0.00     0.033 C 
BRANCH  12  13
ATOM     13  C   UNL d   1      13.416  11.793  -2.682  0.00  0.00     0.123 C 
BRANCH  13  14
ATOM     14  O   UNL d   1      13.597  12.434  -3.158  0.00  0.00    -0.305 OA
BRANCH  14  15
ATOM     15  C   UNL d   1      13.363  12.446  -3.947  0.00  0.00     0.100 A 
ATOM     16  C   UNL d   1      13.005  13.126  -4.270  0.00  0.00     0.023 A 
ATOM     17  C   UNL d   1      12.886  13.786  -3.795  0.00  0.00     0.002 C 
ATOM     18  C   UNL d   1      12.771  13.135  -5.060  0.00  0.00     0.002 A 
ATOM     19  C   UNL d   1      12.890  12.472  -5.537  0.00  0.00     0.000 A 
ATOM     20  C   UNL d   1      13.245  11.791  -5.229  0.00  0.00     0.002 A 
ATOM     21  C   UNL d   1      13.483  11.780  -4.425  0.00  0.00     0.025 A 
ENDBRANCH  14  15
ENDBRANCH  13  14
ENDBRANCH  12  13
ENDBRANCH   1  12
TORSDOF 6
ENDMDL
MODEL 2
REMARK VINA RESULT:      28.9      2.080      4.391
REMARK  6 active torsions:
REMARK  status: ('A' for Active; 'I' for Inactive)
REMARK       I    between atoms: N_2  and  C_1 
REMARK    1  A    between atoms: C_14  and  C_1 
REMARK    2  A    between atoms: C_6  and  N_2 
REMARK    3  A    between atoms: C_4  and  O_13 
REMARK    4  A    between atoms: O_13  and  C_18 
REMARK    5  A    between atoms: C_19  and  C_14 
REMARK    6  A    between atoms: C_18  and  C_19 
ROOT
ATOM      1  C   UNL d   1      14.949  13.268  -0.016  0.00  0.00     0.078 C 
ENDROOT
BRANCH   1   2
ATOM      2  C   UNL d   1      15.082  12.579  -0.445  0.00  0.00     0.328 C 
ATOM      3  N   UNL d   1      14.636  12.420  -1.133  0.00  0.00    -0.365 NA
ATOM      4  O   UNL d   1      15.656  12.041  -0.198  0.00  0.00    -0.251 OA
BRANCH   3   5
ATOM      5  C   UNL d   1      14.200  12.264  -1.808  0.00  0.00     0.135 A 
ATOM      6  C   UNL d   1      14.558  12.346  -2.560  0.00  0.00     0.033 A 
ATOM      7  C   UNL d   1      14.109  12.186  -3.236  0.00  0.00     0.009 A 
ATOM      8  C   UNL d   1      13.321  11.948  -3.173  0.00  0.00     0.035 A 
ATOM      9  C   UNL d   1      12.968  11.866  -2.432  0.00  0.00     0.009 A 
ATOM     10 BR   UNL d   1      12.890  11.793  -3.860  0.00  0.00    -0.049 Br
ATOM     11  C   UNL d   1      13.412  12.026  -1.745  0.00  0.00     0.033 A 
ENDBRANCH   3   5
ENDBRANCH   1   2
BRANCH   1  12
ATOM     12  C   UNL d   1      15.480  13.888  -0.051  0.00  0.00     0.033 C 
BRANCH  12  13
ATOM     13  C   UNL d   1      15.411  14.472  -0.621  0.00  0.00     0.123 C 
BRANCH  13  14
ATOM     14  O   UNL d   1      15.024  15.174  -0.457  0.00  0.00    -0.305 OA
BRANCH  14  15
ATOM     15  C   UNL d   1      15.045  15.796  -0.996  0.00  0.00     0.100 A 
ATOM     16  C   UNL d   1      15.416  16.515  -0.795  0.00  0.00     0.023 A 
ATOM     17  C   UNL d   1      15.762  16.600  -0.055  0.00  0.00     0.002 C 
ATOM     18  C   UNL d   1      15.435  17.136  -1.337  0.00  0.00     0.002 A 
ATOM     19  C   UNL d   1      15.087  17.050  -2.080  0.00  0.00     0.000 A 
ATOM     20  C   UNL d   1      14.716  16.342  -2.292  0.00  0.00     0.002 A 
ATOM     21  C   UNL d   1      14.696  15.710  -1.743  0.00  0.00     0.025 A 
ENDBRANCH  14  15
ENDBRANCH  13  14
ENDBRANCH  12  13
ENDBRANCH   1  12
TORSDOF 6
ENDMDL
