MODEL 1
REMARK VINA RESULT:      74.1      0.000      0.000
REMARK  3 active torsions:
REMARK  status: ('A' for Active; 'I' for Inactive)
REMARK    1  A    between atoms: C_11  and  C_2 
REMARK    2  A    between atoms: C_12  and  C_3 
REMARK    3  A    between atoms: N_7  and  C_6 
ROOT
ATOM      1  C   UNL d   1      57.924  49.367  51.391  0.00  0.00     0.078 A 
ATOM      2  C   UNL d   1      59.310  49.283  51.054  0.00  0.00     0.029 A 
ATOM      3  C   UNL d   1      59.507  49.477  51.836  0.00  0.00     0.102 A 
ATOM      4  C   UNL d   1      58.125  49.560  52.172  0.00  0.00     0.187 A 
ATOM      5  O   UNL d   1      58.914  49.613  52.385  0.00  0.00    -0.289 OA
ATOM      6  C   UNL d   1      57.125  49.314  51.172  0.00  0.00     0.153 A 
ATOM      7  N   UNL d   1      57.529  49.697  52.725  0.00  0.00    -0.200 NA
ATOM      8  N   UNL d   1      56.539  49.452  51.732  0.00  0.00    -0.206 NA
ATOM      9  C   UNL d   1      56.736  49.646  52.514  0.00  0.00     0.202 A 
ENDROOT
BRANCH   2  10
ATOM     10  C   UNL d   1      59.906  49.147  50.501  0.00  0.00     0.002 A 
ATOM     11  C   UNL d   1      60.057  49.698  49.919  0.00  0.00     0.000 A 
ATOM     12  C   UNL d   1      60.655  49.556  49.366  0.00  0.00     0.000 A 
ATOM     13  C   UNL d   1      61.101  48.859  49.402  0.00  0.00     0.000 A 
ATOM     14  C   UNL d   1      60.945  48.304  49.993  0.00  0.00     0.000 A 
ATOM     15  C   UNL d   1      60.346  48.444  50.547  0.00  0.00     0.000 A 
ENDBRANCH   2  10
BRANCH   3  16
ATOM     16  C   UNL d   1      60.298  49.531  52.057  0.00  0.00     0.023 A 
ATOM     17  C   UNL d   1      60.497  49.465  52.848  0.00  0.00     0.002 A 
ATOM     18  C   UNL d   1      61.287  49.520  53.070  0.00  0.00     0.000 A 
ATOM     19  C   UNL d   1      61.866  49.639  52.495  0.00  0.00     0.000 A 
ATOM     20  C   UNL d   1      61.653  49.704  51.701  0.00  0.00     0.000 A 
ATOM     21  C   UNL d   1      60.868  49.649  51.491  0.00  0.00     0.002 A 
ENDBRANCH   3  16
BRANCH   6  22
ATOM     22  N   UNL d   1      56.925  49.122  50.395  0.00  0.00    -0.285 N 
ATOM     23  C   UNL d   1      57.056  49.657  49.786  0.00  0.00     0.108 A 
ATOM     24  C   UNL d   1      56.855  49.464  49.005  0.00  0.00     0.142 A 
ATOM     25  O   UNL d   1      56.524  48.735  48.834  0.00  0.00    -0.300 OA
ATOM     26  C   UNL d   1      56.390  48.189  49.454  0.00  0.00     0.142 A 
ATOM     27  C   UNL d   1      56.589  48.381  50.227  0.00  0.00     0.108 A 
ENDBRANCH   6  22
TORSDOF 3
ENDMDL
