MODEL 1
REMARK VINA RESULT:      -3.4      0.000      0.000
REMARK  7 active torsions:
REMARK  status: ('A' for Active; 'I' for Inactive)
REMARK    1  A    between atoms: N_3  and  C_2 
REMARK       I    between atoms: C_6  and  N_3 
REMARK    2  A    between atoms: C_11  and  C_4 
REMARK    3  A    between atoms: C_5  and  C_6 
REMARK    4  A    between atoms: C_15  and  C_11 
REMARK    5  A    between atoms: C_18  and  C_12 
REMARK    6  A    between atoms: O_17  and  C_18 
REMARK    7  A    between atoms: C_19  and  O_17 
ROOT
ATOM      1  C   UNL d   1      33.001  19.235 -22.878  0.00  0.00     0.158 A 
ATOM      2  O   UNL d   1      32.953  19.655 -22.172  0.00  0.00    -0.300 OA
ATOM      3  C   UNL d   1      33.177  19.769 -23.480  0.00  0.00     0.032 A 
ATOM      4  C   UNL d   1      33.099  20.449 -22.332  0.00  0.00     0.125 A 
ATOM      5  C   UNL d   1      33.238  20.525 -23.142  0.00  0.00     0.029 A 
ENDROOT
BRANCH   1   6
ATOM      6  C   UNL d   1      32.891  18.418 -22.970  0.00  0.00     0.304 C 
ATOM      7  N   UNL d   1      32.483  18.130 -23.628  0.00  0.00    -0.180 NA
ATOM      8  O   UNL d   1      33.190  17.903 -22.404  0.00  0.00    -0.263 OA
BRANCH   7   9
ATOM      9  C   UNL d   1      32.374  17.318 -23.721  0.00  0.00     0.216 A 
ATOM     10  N   UNL d   1      31.727  16.875 -23.429  0.00  0.00    -0.200 NA
ATOM     11  C   UNL d   1      31.844  16.099 -23.647  0.00  0.00     0.175 A 
ATOM     12  N   UNL d   1      32.550  16.048 -24.069  0.00  0.00    -0.187 NA
ATOM     13  S   UNL d   1      32.877  16.810 -24.113  0.00  0.00     0.054 SA
BRANCH  11  14
ATOM     14  C   UNL d   1      31.346  15.468 -23.478  0.00  0.00     0.082 C 
BRANCH  14  15
ATOM     15  C   UNL d   1      30.527  15.550 -23.582  0.00  0.00     0.199 C 
ATOM     16  O   UNL d   1      30.204  15.543 -24.342  0.00  0.00    -0.286 OA
ATOM     17  C   UNL d   1      30.032  15.638 -22.927  0.00  0.00     0.045 C 
ENDBRANCH  14  15
ENDBRANCH  11  14
ENDBRANCH   7   9
ENDBRANCH   1   6
BRANCH   4  18
ATOM     18  C   UNL d   1      33.105  21.060 -21.782  0.00  0.00     0.147 C 
BRANCH  18  19
ATOM     19  O   UNL d   1      32.393  21.424 -21.568  0.00  0.00    -0.303 OA
BRANCH  19  20
ATOM     20  C   UNL d   1      32.404  22.123 -21.132  0.00  0.00     0.100 A 
ATOM     21  C   UNL d   1      32.538  22.101 -20.313  0.00  0.00     0.025 A 
ATOM     22  C   UNL d   1      32.549  22.799 -19.877  0.00  0.00     0.002 A 
ATOM     23  C   UNL d   1      32.426  23.519 -20.261  0.00  0.00     0.000 A 
ATOM     24  C   UNL d   1      32.292  23.542 -21.077  0.00  0.00     0.002 A 
ATOM     25  C   UNL d   1      32.281  22.845 -21.512  0.00  0.00     0.025 A 
ENDBRANCH  19  20
ENDBRANCH  18  19
ENDBRANCH   4  18
TORSDOF 7
ENDMDL
MODEL 2
REMARK VINA RESULT:      -2.2      3.135      6.563
REMARK  7 active torsions:
REMARK  status: ('A' for Active; 'I' for Inactive)
REMARK    1  A    between atoms: N_3  and  C_2 
REMARK       I    between atoms: C_6  and  N_3 
REMARK    2  A    between atoms: C_11  and  C_4 
REMARK    3  A    between atoms: C_5  and  C_6 
REMARK    4  A    between atoms: C_15  and  C_11 
REMARK    5  A    between atoms: C_18  and  C_12 
REMARK    6  A    between atoms: O_17  and  C_18 
REMARK    7  A    between atoms: C_19  and  O_17 
ROOT
ATOM      1  C   UNL d   1      33.107  20.939 -21.145  0.00  0.00     0.158 A 
ATOM      2  O   UNL d   1      33.045  20.823 -21.957  0.00  0.00    -0.300 OA
ATOM      3  C   UNL d   1      33.209  20.202 -20.790  0.00  0.00     0.032 A 
ATOM      4  C   UNL d   1      33.108  20.017 -22.110  0.00  0.00     0.125 A 
ATOM      5  C   UNL d   1      33.209  19.628 -21.390  0.00  0.00     0.029 A 
ENDROOT
BRANCH   1   6
ATOM      6  C   UNL d   1      33.073  21.667 -20.750  0.00  0.00     0.304 C 
ATOM      7  N   UNL d   1      33.010  21.685 -19.927  0.00  0.00    -0.180 NA
ATOM      8  O   UNL d   1      33.103  22.365 -21.183  0.00  0.00    -0.263 OA
BRANCH   7   9
ATOM      9  C   UNL d   1      32.976  22.410 -19.532  0.00  0.00     0.216 A 
ATOM     10  N   UNL d   1      33.134  22.532 -18.720  0.00  0.00    -0.200 NA
ATOM     11  C   UNL d   1      33.036  23.326 -18.568  0.00  0.00     0.175 A 
ATOM     12  N   UNL d   1      32.819  23.702 -19.270  0.00  0.00    -0.187 NA
ATOM     13  S   UNL d   1      32.784  23.127 -19.868  0.00  0.00     0.054 SA
BRANCH  11  14
ATOM     14  C   UNL d   1      33.133  23.697 -17.843  0.00  0.00     0.082 C 
BRANCH  14  15
ATOM     15  C   UNL d   1      32.780  23.375 -17.165  0.00  0.00     0.199 C 
ATOM     16  O   UNL d   1      31.969  23.214 -17.157  0.00  0.00    -0.286 OA
ATOM     17  C   UNL d   1      33.236  23.215 -16.495  0.00  0.00     0.045 C 
ENDBRANCH  14  15
ENDBRANCH  11  14
ENDBRANCH   7   9
ENDBRANCH   1   6
BRANCH   4  18
ATOM     18  C   UNL d   1      33.075  19.662 -22.851  0.00  0.00     0.147 C 
BRANCH  18  19
ATOM     19  O   UNL d   1      32.592  19.000 -22.966  0.00  0.00    -0.303 OA
BRANCH  19  20
ATOM     20  C   UNL d   1      32.713  18.512 -23.617  0.00  0.00     0.100 A 
ATOM     21  C   UNL d   1      32.792  18.841 -24.376  0.00  0.00     0.025 A 
ATOM     22  C   UNL d   1      32.913  18.352 -25.027  0.00  0.00     0.002 A 
ATOM     23  C   UNL d   1      32.956  17.535 -24.921  0.00  0.00     0.000 A 
ATOM     24  C   UNL d   1      32.878  17.206 -24.166  0.00  0.00     0.002 A 
ATOM     25  C   UNL d   1      32.757  17.694 -23.515  0.00  0.00     0.025 A 
ENDBRANCH  19  20
ENDBRANCH  18  19
ENDBRANCH   4  18
TORSDOF 7
ENDMDL
MODEL 3
REMARK VINA RESULT:      -1.5      1.772      2.947
REMARK  7 active torsions:
REMARK  status: ('A' for Active; 'I' for Inactive)
REMARK    1  A    between atoms: N_3  and  C_2 
REMARK       I    between atoms: C_6  and  N_3 
REMARK    2  A    between atoms: C_11  and  C_4 
REMARK    3  A    between atoms: C_5  and  C_6 
REMARK    4  A    between atoms: C_15  and  C_11 
REMARK    5  A    between atoms: C_18  and  C_12 
REMARK    6  A    between atoms: O_17  and  C_18 
REMARK    7  A    between atoms: C_19  and  O_17 
ROOT
ATOM      1  C   UNL d   1      32.529  21.343 -21.144  0.00  0.00     0.158 A 
ATOM      2  O   UNL d   1      32.852  21.632 -20.445  0.00  0.00    -0.300 OA
ATOM      3  C   UNL d   1      32.029  21.922 -21.451  0.00  0.00     0.032 A 
ATOM      4  C   UNL d   1      32.556  22.388 -20.315  0.00  0.00     0.125 A 
ATOM      5  C   UNL d   1      32.045  22.573 -20.936  0.00  0.00     0.029 A 
ENDROOT
BRANCH   1   6
ATOM      6  C   UNL d   1      32.678  20.601 -21.483  0.00  0.00     0.304 C 
ATOM      7  N   UNL d   1      32.657  20.512 -22.303  0.00  0.00    -0.180 NA
ATOM      8  O   UNL d   1      32.846  19.960 -20.996  0.00  0.00    -0.263 OA
BRANCH   7   9
ATOM      9  C   UNL d   1      32.805  19.774 -22.642  0.00  0.00     0.216 A 
ATOM     10  N   UNL d   1      32.552  19.524 -23.398  0.00  0.00    -0.200 NA
ATOM     11  C   UNL d   1      32.820  18.761 -23.505  0.00  0.00     0.175 A 
ATOM     12  N   UNL d   1      33.234  18.532 -22.830  0.00  0.00    -0.187 NA
ATOM     13  S   UNL d   1      33.222  19.165 -22.295  0.00  0.00     0.054 SA
BRANCH  11  14
ATOM     14  C   UNL d   1      32.700  18.295 -24.170  0.00  0.00     0.082 C 
BRANCH  14  15
ATOM     15  C   UNL d   1      32.251  17.600 -24.111  0.00  0.00     0.199 C 
ATOM     16  O   UNL d   1      32.614  16.889 -23.898  0.00  0.00    -0.286 OA
ATOM     17  C   UNL d   1      31.439  17.616 -24.264  0.00  0.00     0.045 C 
ENDBRANCH  14  15
ENDBRANCH  11  14
ENDBRANCH   7   9
ENDBRANCH   1   6
BRANCH   4  18
ATOM     18  C   UNL d   1      32.737  22.876 -19.678  0.00  0.00     0.147 C 
BRANCH  18  19
ATOM     19  O   UNL d   1      33.038  22.544 -18.982  0.00  0.00    -0.303 OA
BRANCH  19  20
ATOM     20  C   UNL d   1      32.824  22.857 -18.252  0.00  0.00     0.100 A 
ATOM     21  C   UNL d   1      33.241  22.638 -17.567  0.00  0.00     0.025 A 
ATOM     22  C   UNL d   1      33.027  22.952 -16.836  0.00  0.00     0.002 A 
ATOM     23  C   UNL d   1      32.397  23.483 -16.789  0.00  0.00     0.000 A 
ATOM     24  C   UNL d   1      31.982  23.701 -17.470  0.00  0.00     0.002 A 
ATOM     25  C   UNL d   1      32.195  23.388 -18.201  0.00  0.00     0.025 A 
ENDBRANCH  19  20
ENDBRANCH  18  19
ENDBRANCH   4  18
TORSDOF 7
ENDMDL
