MODEL 1
REMARK VINA RESULT:      -8.3      0.000      0.000
REMARK  5 active torsions:
REMARK  status: ('A' for Active; 'I' for Inactive)
REMARK    1  A    between atoms: C_8  and  N_1 
REMARK       I    between atoms: N_2  and  C_6 
REMARK    2  A    between atoms: S_11  and  C_3 
REMARK    3  A    between atoms: C_6  and  C_8 
REMARK    4  A    between atoms: C_9  and  C_15 
REMARK       I    between atoms: N_10  and  C_9 
REMARK    5  A    between atoms: C_15  and  S_11 
ROOT
ATOM      1  N   UNL d   1      51.780  34.224  53.378  0.00  0.00    -0.300 N 
ATOM      2  C   UNL d   1      52.846  33.429  53.455  0.00  0.00     0.049 A 
ATOM      3  C   UNL d   1      52.071  33.481  53.172  0.00  0.00     0.087 A 
ATOM      4  C   UNL d   1      53.030  34.138  53.832  0.00  0.00     0.024 A 
ATOM      5  C   UNL d   1      52.369  34.629  53.784  0.00  0.00     0.065 A 
ATOM      6  C   UNL d   1      53.711  34.397  54.211  0.00  0.00     0.002 A 
ATOM      7  C   UNL d   1      52.389  35.384  54.117  0.00  0.00     0.018 A 
ATOM      8  C   UNL d   1      53.736  35.153  54.547  0.00  0.00     0.000 A 
ATOM      9  C   UNL d   1      53.070  35.643  54.496  0.00  0.00     0.002 A 
ENDROOT
BRANCH   1  10
ATOM     10  C   UNL d   1      51.028  34.511  53.206  0.00  0.00     0.142 C 
BRANCH  10  11
ATOM     11  C   UNL d   1      50.688  34.362  52.474  0.00  0.00     0.283 C 
ATOM     12  N   UNL d   1      49.923  34.621  52.314  0.00  0.00    -0.267 N 
ATOM     13  C   UNL d   1      49.580  34.473  51.580  0.00  0.00     0.108 A 
ATOM     14  C   UNL d   1      49.495  35.030  52.884  0.00  0.00     0.108 A 
ATOM     15  C   UNL d   1      48.816  34.732  51.419  0.00  0.00     0.118 A 
ATOM     16  C   UNL d   1      48.469  34.581  50.674  0.00  0.00     0.028 C 
ATOM     17  O   UNL d   1      48.383  35.143  51.990  0.00  0.00    -0.304 OA
ATOM     18  C   UNL d   1      48.722  35.292  52.722  0.00  0.00     0.118 A 
ATOM     19  C   UNL d   1      48.294  35.701  53.294  0.00  0.00     0.028 C 
ATOM     20  O   UNL d   1      51.113  33.954  51.902  0.00  0.00    -0.265 OA
ENDBRANCH  10  11
ENDBRANCH   1  10
BRANCH   2  21
ATOM     21  S   UNL d   1      53.346  32.779  53.371  0.00  0.00    -0.080 SA
BRANCH  21  22
ATOM     22  C   UNL d   1      53.037  32.020  53.297  0.00  0.00     0.097 C 
BRANCH  22  23
ATOM     23  C   UNL d   1      53.512  31.365  53.485  0.00  0.00     0.272 C 
ATOM     24  N   UNL d   1      53.188  30.612  53.489  0.00  0.00    -0.267 N 
ATOM     25  C   UNL d   1      53.667  29.969  53.676  0.00  0.00     0.110 A 
ATOM     26  C   UNL d   1      52.393  30.504  53.306  0.00  0.00     0.110 A 
ATOM     27  C   UNL d   1      53.343  29.207  53.681  0.00  0.00     0.142 A 
ATOM     28  O   UNL d   1      52.537  29.095  53.496  0.00  0.00    -0.300 OA
ATOM     29  C   UNL d   1      52.069  29.741  53.311  0.00  0.00     0.142 A 
ATOM     30  O   UNL d   1      54.313  31.465  53.670  0.00  0.00    -0.266 OA
ENDBRANCH  22  23
ENDBRANCH  21  22
ENDBRANCH   2  21
TORSDOF 5
ENDMDL
MODEL 2
REMARK VINA RESULT:      -7.6      1.091      4.906
REMARK  5 active torsions:
REMARK  status: ('A' for Active; 'I' for Inactive)
REMARK    1  A    between atoms: C_8  and  N_1 
REMARK       I    between atoms: N_2  and  C_6 
REMARK    2  A    between atoms: S_11  and  C_3 
REMARK    3  A    between atoms: C_6  and  C_8 
REMARK    4  A    between atoms: C_9  and  C_15 
REMARK       I    between atoms: N_10  and  C_9 
REMARK    5  A    between atoms: C_15  and  S_11 
ROOT
ATOM      1  N   UNL d   1      53.500  32.561  53.904  0.00  0.00    -0.300 N 
ATOM      2  C   UNL d   1      52.832  33.713  53.891  0.00  0.00     0.049 A 
ATOM      3  C   UNL d   1      52.818  32.931  53.625  0.00  0.00     0.087 A 
ATOM      4  C   UNL d   1      53.518  33.822  54.331  0.00  0.00     0.024 A 
ATOM      5  C   UNL d   1      53.931  33.108  54.338  0.00  0.00     0.065 A 
ATOM      6  C   UNL d   1      53.819  34.477  54.725  0.00  0.00     0.002 A 
ATOM      7  C   UNL d   1      54.649  33.049  54.742  0.00  0.00     0.018 A 
ATOM      8  C   UNL d   1      54.539  34.423  55.131  0.00  0.00     0.000 A 
ATOM      9  C   UNL d   1      54.949  33.704  55.135  0.00  0.00     0.002 A 
ENDROOT
BRANCH   1  10
ATOM     10  C   UNL d   1      53.711  31.777  53.769  0.00  0.00     0.142 C 
BRANCH  10  11
ATOM     11  C   UNL d   1      53.278  31.318  53.244  0.00  0.00     0.283 C 
ATOM     12  N   UNL d   1      53.129  30.526  53.414  0.00  0.00    -0.267 N 
ATOM     13  C   UNL d   1      52.695  30.064  52.889  0.00  0.00     0.108 A 
ATOM     14  C   UNL d   1      53.411  30.190  54.110  0.00  0.00     0.108 A 
ATOM     15  C   UNL d   1      52.545  29.273  53.059  0.00  0.00     0.118 A 
ATOM     16  C   UNL d   1      52.104  28.805  52.524  0.00  0.00     0.028 C 
ATOM     17  O   UNL d   1      52.827  28.932  53.756  0.00  0.00    -0.304 OA
ATOM     18  C   UNL d   1      53.260  29.390  54.281  0.00  0.00     0.118 A 
ATOM     19  C   UNL d   1      53.543  29.055  54.977  0.00  0.00     0.028 C 
ATOM     20  O   UNL d   1      52.995  31.651  52.549  0.00  0.00    -0.265 OA
ENDBRANCH  10  11
ENDBRANCH   1  10
BRANCH   2  21
ATOM     21  S   UNL d   1      52.255  34.283  53.740  0.00  0.00    -0.080 SA
BRANCH  21  22
ATOM     22  C   UNL d   1      51.638  34.125  53.220  0.00  0.00     0.097 C 
BRANCH  22  23
ATOM     23  C   UNL d   1      50.943  34.581  53.258  0.00  0.00     0.272 C 
ATOM     24  N   UNL d   1      50.387  34.532  52.658  0.00  0.00    -0.267 N 
ATOM     25  C   UNL d   1      49.703  34.988  52.705  0.00  0.00     0.110 A 
ATOM     26  C   UNL d   1      50.515  34.031  52.017  0.00  0.00     0.110 A 
ATOM     27  C   UNL d   1      49.139  34.940  52.101  0.00  0.00     0.142 A 
ATOM     28  O   UNL d   1      49.267  34.433  51.450  0.00  0.00    -0.300 OA
ATOM     29  C   UNL d   1      49.951  33.984  51.412  0.00  0.00     0.142 A 
ATOM     30  O   UNL d   1      50.808  35.086  53.899  0.00  0.00    -0.266 OA
ENDBRANCH  22  23
ENDBRANCH  21  22
ENDBRANCH   2  21
TORSDOF 5
ENDMDL
MODEL 3
REMARK VINA RESULT:      -7.5      9.484     11.078
REMARK  5 active torsions:
REMARK  status: ('A' for Active; 'I' for Inactive)
REMARK    1  A    between atoms: C_8  and  N_1 
REMARK       I    between atoms: N_2  and  C_6 
REMARK    2  A    between atoms: S_11  and  C_3 
REMARK    3  A    between atoms: C_6  and  C_8 
REMARK    4  A    between atoms: C_9  and  C_15 
REMARK       I    between atoms: N_10  and  C_9 
REMARK    5  A    between atoms: C_15  and  S_11 
ROOT
ATOM      1  N   UNL d   1      45.128  28.741  57.759  0.00  0.00    -0.300 N 
ATOM      2  C   UNL d   1      44.972  29.865  58.458  0.00  0.00     0.049 A 
ATOM      3  C   UNL d   1      45.160  29.062  58.518  0.00  0.00     0.087 A 
ATOM      4  C   UNL d   1      44.826  30.036  57.667  0.00  0.00     0.024 A 
ATOM      5  C   UNL d   1      44.923  29.339  57.235  0.00  0.00     0.065 A 
ATOM      6  C   UNL d   1      44.617  30.733  57.285  0.00  0.00     0.002 A 
ATOM      7  C   UNL d   1      44.811  29.340  56.417  0.00  0.00     0.018 A 
ATOM      8  C   UNL d   1      44.504  30.739  56.465  0.00  0.00     0.000 A 
ATOM      9  C   UNL d   1      44.602  30.037  56.036  0.00  0.00     0.002 A 
ENDROOT
BRANCH   1  10
ATOM     10  C   UNL d   1      45.277  27.956  57.562  0.00  0.00     0.142 C 
BRANCH  10  11
ATOM     11  C   UNL d   1      45.126  27.359  58.105  0.00  0.00     0.283 C 
ATOM     12  N   UNL d   1      44.943  26.601  57.844  0.00  0.00    -0.267 N 
ATOM     13  C   UNL d   1      44.791  26.000  58.386  0.00  0.00     0.108 A 
ATOM     14  C   UNL d   1      44.912  26.435  57.039  0.00  0.00     0.108 A 
ATOM     15  C   UNL d   1      44.609  25.242  58.125  0.00  0.00     0.118 A 
ATOM     16  C   UNL d   1      44.455  24.633  58.678  0.00  0.00     0.028 C 
ATOM     17  O   UNL d   1      44.576  25.072  57.318  0.00  0.00    -0.304 OA
ATOM     18  C   UNL d   1      44.727  25.668  56.775  0.00  0.00     0.118 A 
ATOM     19  C   UNL d   1      44.696  25.502  55.969  0.00  0.00     0.028 C 
ATOM     20  O   UNL d   1      45.157  27.522  58.909  0.00  0.00    -0.265 OA
ENDBRANCH  10  11
ENDBRANCH   1  10
BRANCH   2  21
ATOM     21  S   UNL d   1      44.939  30.399  59.085  0.00  0.00    -0.080 SA
BRANCH  21  22
ATOM     22  C   UNL d   1      44.827  30.133  59.856  0.00  0.00     0.097 C 
BRANCH  22  23
ATOM     23  C   UNL d   1      44.735  30.685  60.470  0.00  0.00     0.272 C 
ATOM     24  N   UNL d   1      44.619  30.427  61.239  0.00  0.00    -0.267 N 
ATOM     25  C   UNL d   1      44.529  30.982  61.841  0.00  0.00     0.110 A 
ATOM     26  C   UNL d   1      44.592  29.620  61.404  0.00  0.00     0.110 A 
ATOM     27  C   UNL d   1      44.411  30.724  62.619  0.00  0.00     0.142 A 
ATOM     28  O   UNL d   1      44.384  29.907  62.788  0.00  0.00    -0.300 OA
ATOM     29  C   UNL d   1      44.474  29.363  62.183  0.00  0.00     0.142 A 
ATOM     30  O   UNL d   1      44.761  31.497  60.312  0.00  0.00    -0.266 OA
ENDBRANCH  22  23
ENDBRANCH  21  22
ENDBRANCH   2  21
TORSDOF 5
ENDMDL
MODEL 4
REMARK VINA RESULT:      -6.8      9.566     10.659
REMARK  5 active torsions:
REMARK  status: ('A' for Active; 'I' for Inactive)
REMARK    1  A    between atoms: C_8  and  N_1 
REMARK       I    between atoms: N_2  and  C_6 
REMARK    2  A    between atoms: S_11  and  C_3 
REMARK    3  A    between atoms: C_6  and  C_8 
REMARK    4  A    between atoms: C_9  and  C_15 
REMARK       I    between atoms: N_10  and  C_9 
REMARK    5  A    between atoms: C_15  and  S_11 
ROOT
ATOM      1  N   UNL d   1      44.778  30.154  58.903  0.00  0.00    -0.300 N 
ATOM      2  C   UNL d   1      44.729  29.348  57.844  0.00  0.00     0.049 A 
ATOM      3  C   UNL d   1      44.776  29.364  58.669  0.00  0.00     0.087 A 
ATOM      4  C   UNL d   1      44.704  30.125  57.573  0.00  0.00     0.024 A 
ATOM      5  C   UNL d   1      44.734  30.623  58.230  0.00  0.00     0.065 A 
ATOM      6  C   UNL d   1      44.657  30.441  56.817  0.00  0.00     0.002 A 
ATOM      7  C   UNL d   1      44.717  31.442  58.130  0.00  0.00     0.018 A 
ATOM      8  C   UNL d   1      44.639  31.262  56.711  0.00  0.00     0.000 A 
ATOM      9  C   UNL d   1      44.670  31.758  57.374  0.00  0.00     0.002 A 
ENDROOT
BRANCH   1  10
ATOM     10  C   UNL d   1      44.819  30.426  59.679  0.00  0.00     0.142 C 
BRANCH  10  11
ATOM     11  C   UNL d   1      44.806  29.893  60.303  0.00  0.00     0.283 C 
ATOM     12  N   UNL d   1      44.677  30.159  61.071  0.00  0.00    -0.267 N 
ATOM     13  C   UNL d   1      44.664  29.626  61.699  0.00  0.00     0.108 A 
ATOM     14  C   UNL d   1      44.561  30.960  61.219  0.00  0.00     0.108 A 
ATOM     15  C   UNL d   1      44.536  29.893  62.467  0.00  0.00     0.118 A 
ATOM     16  C   UNL d   1      44.523  29.350  63.103  0.00  0.00     0.028 C 
ATOM     17  O   UNL d   1      44.418  30.696  62.618  0.00  0.00    -0.304 OA
ATOM     18  C   UNL d   1      44.431  31.229  61.995  0.00  0.00     0.118 A 
ATOM     19  C   UNL d   1      44.314  32.031  62.142  0.00  0.00     0.028 C 
ATOM     20  O   UNL d   1      44.922  29.092  60.159  0.00  0.00    -0.265 OA
ENDBRANCH  10  11
ENDBRANCH   1  10
BRANCH   2  21
ATOM     21  S   UNL d   1      44.712  28.670  57.376  0.00  0.00    -0.080 SA
BRANCH  21  22
ATOM     22  C   UNL d   1      44.806  27.925  57.714  0.00  0.00     0.097 C 
BRANCH  22  23
ATOM     23  C   UNL d   1      44.772  27.249  57.232  0.00  0.00     0.272 C 
ATOM     24  N   UNL d   1      44.726  26.505  57.573  0.00  0.00    -0.267 N 
ATOM     25  C   UNL d   1      44.692  25.841  57.086  0.00  0.00     0.110 A 
ATOM     26  C   UNL d   1      44.713  26.426  58.392  0.00  0.00     0.110 A 
ATOM     27  C   UNL d   1      44.646  25.088  57.427  0.00  0.00     0.142 A 
ATOM     28  O   UNL d   1      44.633  25.007  58.258  0.00  0.00    -0.300 OA
ATOM     29  C   UNL d   1      44.667  25.673  58.733  0.00  0.00     0.142 A 
ATOM     30  O   UNL d   1      44.784  27.320  56.407  0.00  0.00    -0.266 OA
ENDBRANCH  22  23
ENDBRANCH  21  22
ENDBRANCH   2  21
TORSDOF 5
ENDMDL
MODEL 5
REMARK VINA RESULT:      -5.6     10.299     11.584
REMARK  5 active torsions:
REMARK  status: ('A' for Active; 'I' for Inactive)
REMARK    1  A    between atoms: C_8  and  N_1 
REMARK       I    between atoms: N_2  and  C_6 
REMARK    2  A    between atoms: S_11  and  C_3 
REMARK    3  A    between atoms: C_6  and  C_8 
REMARK    4  A    between atoms: C_9  and  C_15 
REMARK       I    between atoms: N_10  and  C_9 
REMARK    5  A    between atoms: C_15  and  S_11 
ROOT
ATOM      1  N   UNL d   1      44.672  27.983  58.592  0.00  0.00    -0.300 N 
ATOM      2  C   UNL d   1      44.831  27.027  57.678  0.00  0.00     0.049 A 
ATOM      3  C   UNL d   1      44.743  27.168  58.487  0.00  0.00     0.087 A 
ATOM      4  C   UNL d   1      44.814  27.751  57.287  0.00  0.00     0.024 A 
ATOM      5  C   UNL d   1      44.715  28.342  57.854  0.00  0.00     0.065 A 
ATOM      6  C   UNL d   1      44.875  27.948  56.492  0.00  0.00     0.002 A 
ATOM      7  C   UNL d   1      44.678  29.134  57.624  0.00  0.00     0.018 A 
ATOM      8  C   UNL d   1      44.838  28.740  56.256  0.00  0.00     0.000 A 
ATOM      9  C   UNL d   1      44.739  29.330  56.830  0.00  0.00     0.002 A 
ENDROOT
BRANCH   1  10
ATOM     10  C   UNL d   1      44.574  28.369  59.312  0.00  0.00     0.142 C 
BRANCH  10  11
ATOM     11  C   UNL d   1      44.494  27.935  60.004  0.00  0.00     0.283 C 
ATOM     12  N   UNL d   1      44.519  28.314  60.734  0.00  0.00    -0.267 N 
ATOM     13  C   UNL d   1      44.439  27.881  61.430  0.00  0.00     0.108 A 
ATOM     14  C   UNL d   1      44.626  29.129  60.776  0.00  0.00     0.108 A 
ATOM     15  C   UNL d   1      44.464  28.260  62.160  0.00  0.00     0.118 A 
ATOM     16  C   UNL d   1      44.382  27.819  62.865  0.00  0.00     0.028 C 
ATOM     17  O   UNL d   1      44.571  29.078  62.205  0.00  0.00    -0.304 OA
ATOM     18  C   UNL d   1      44.652  29.512  61.514  0.00  0.00     0.118 A 
ATOM     19  C   UNL d   1      44.759  30.327  61.555  0.00  0.00     0.028 C 
ATOM     20  O   UNL d   1      44.387  27.122  59.966  0.00  0.00    -0.265 OA
ENDBRANCH  10  11
ENDBRANCH   1  10
BRANCH   2  21
ATOM     21  S   UNL d   1      44.920  26.287  57.326  0.00  0.00    -0.080 SA
BRANCH  21  22
ATOM     22  C   UNL d   1      44.565  25.622  57.655  0.00  0.00     0.097 C 
BRANCH  22  23
ATOM     23  C   UNL d   1      44.613  24.893  57.257  0.00  0.00     0.272 C 
ATOM     24  N   UNL d   1      44.533  24.192  57.675  0.00  0.00    -0.267 N 
ATOM     25  C   UNL d   1      44.582  23.476  57.272  0.00  0.00     0.110 A 
ATOM     26  C   UNL d   1      44.404  24.209  58.488  0.00  0.00     0.110 A 
ATOM     27  C   UNL d   1      44.501  22.766  57.691  0.00  0.00     0.142 A 
ATOM     28  O   UNL d   1      44.371  22.781  58.515  0.00  0.00    -0.300 OA
ATOM     29  C   UNL d   1      44.324  23.499  58.906  0.00  0.00     0.142 A 
ATOM     30  O   UNL d   1      44.742  24.868  56.440  0.00  0.00    -0.266 OA
ENDBRANCH  22  23
ENDBRANCH  21  22
ENDBRANCH   2  21
TORSDOF 5
ENDMDL
MODEL 6
REMARK VINA RESULT:      -5.5      9.497     11.237
REMARK  5 active torsions:
REMARK  status: ('A' for Active; 'I' for Inactive)
REMARK    1  A    between atoms: C_8  and  N_1 
REMARK       I    between atoms: N_2  and  C_6 
REMARK    2  A    between atoms: S_11  and  C_3 
REMARK    3  A    between atoms: C_6  and  C_8 
REMARK    4  A    between atoms: C_9  and  C_15 
REMARK       I    between atoms: N_10  and  C_9 
REMARK    5  A    between atoms: C_15  and  S_11 
ROOT
ATOM      1  N   UNL d   1      44.694  28.106  59.039  0.00  0.00    -0.300 N 
ATOM      2  C   UNL d   1      44.629  28.510  57.771  0.00  0.00     0.049 A 
ATOM      3  C   UNL d   1      44.482  28.737  58.551  0.00  0.00     0.087 A 
ATOM      4  C   UNL d   1      44.930  27.744  57.778  0.00  0.00     0.024 A 
ATOM      5  C   UNL d   1      44.970  27.495  58.564  0.00  0.00     0.065 A 
ATOM      6  C   UNL d   1      45.172  27.243  57.174  0.00  0.00     0.002 A 
ATOM      7  C   UNL d   1      45.253  26.741  58.746  0.00  0.00     0.018 A 
ATOM      8  C   UNL d   1      45.457  26.486  57.351  0.00  0.00     0.000 A 
ATOM      9  C   UNL d   1      45.494  26.241  58.142  0.00  0.00     0.002 A 
ENDROOT
BRANCH   1  10
ATOM     10  C   UNL d   1      44.639  28.093  59.860  0.00  0.00     0.142 C 
BRANCH  10  11
ATOM     11  C   UNL d   1      44.597  28.796  60.281  0.00  0.00     0.283 C 
ATOM     12  N   UNL d   1      44.508  28.782  61.099  0.00  0.00    -0.267 N 
ATOM     13  C   UNL d   1      44.466  29.486  61.524  0.00  0.00     0.108 A 
ATOM     14  C   UNL d   1      44.460  28.065  61.500  0.00  0.00     0.108 A 
ATOM     15  C   UNL d   1      44.377  29.472  62.342  0.00  0.00     0.118 A 
ATOM     16  C   UNL d   1      44.335  30.188  62.772  0.00  0.00     0.028 C 
ATOM     17  O   UNL d   1      44.328  28.754  62.747  0.00  0.00    -0.304 OA
ATOM     18  C   UNL d   1      44.369  28.051  62.327  0.00  0.00     0.118 A 
ATOM     19  C   UNL d   1      44.321  27.334  62.727  0.00  0.00     0.028 C 
ATOM     20  O   UNL d   1      44.645  29.514  59.884  0.00  0.00    -0.265 OA
ENDBRANCH  10  11
ENDBRANCH   1  10
BRANCH   2  21
ATOM     21  S   UNL d   1      44.496  28.973  57.102  0.00  0.00    -0.080 SA
BRANCH  21  22
ATOM     22  C   UNL d   1      44.426  29.790  57.166  0.00  0.00     0.097 C 
BRANCH  22  23
ATOM     23  C   UNL d   1      44.426  30.257  56.478  0.00  0.00     0.272 C 
ATOM     24  N   UNL d   1      44.389  31.074  56.537  0.00  0.00    -0.267 N 
ATOM     25  C   UNL d   1      44.389  31.527  55.849  0.00  0.00     0.110 A 
ATOM     26  C   UNL d   1      44.352  31.433  57.277  0.00  0.00     0.110 A 
ATOM     27  C   UNL d   1      44.352  32.352  55.905  0.00  0.00     0.142 A 
ATOM     28  O   UNL d   1      44.314  32.718  56.654  0.00  0.00    -0.300 OA
ATOM     29  C   UNL d   1      44.314  32.259  57.332  0.00  0.00     0.142 A 
ATOM     30  O   UNL d   1      44.463  29.903  55.731  0.00  0.00    -0.266 OA
ENDBRANCH  22  23
ENDBRANCH  21  22
ENDBRANCH   2  21
TORSDOF 5
ENDMDL
