MODEL 1
REMARK VINA RESULT:      -3.3      0.000      0.000
REMARK  9 active torsions:
REMARK  status: ('A' for Active; 'I' for Inactive)
REMARK    1  A    between atoms: C_14  and  N_1 
REMARK    2  A    between atoms: S_6  and  C_2 
REMARK    3  A    between atoms: C_8  and  C_3 
REMARK    4  A    between atoms: C_16  and  S_6 
REMARK    5  A    between atoms: O_11  and  C_8 
REMARK    6  A    between atoms: C_9  and  C_16 
REMARK    7  A    between atoms: O_19  and  C_9 
REMARK    8  A    between atoms: C_12  and  O_11 
REMARK    9  A    between atoms: C_15  and  C_14 
ROOT
ATOM      1  N   UNL d   1     -41.579-122.700 -50.894  0.00  0.00    -0.266 N 
ATOM      2  C   UNL d   1     -41.959-123.046 -50.255  0.00  0.00     0.202 A 
ATOM      3  C   UNL d   1     -41.739-123.161 -51.562  0.00  0.00     0.196 A 
ATOM      4  N   UNL d   1     -42.353-123.719 -50.521  0.00  0.00    -0.121 NA
ATOM      5  N   UNL d   1     -42.216-123.790 -51.334  0.00  0.00    -0.126 NA
ENDROOT
BRANCH   3   6
ATOM      6  C   UNL d   1     -41.467-123.016 -52.327  0.00  0.00     0.162 C 
BRANCH   6   7
ATOM      7  O   UNL d   1     -42.004-122.850 -52.933  0.00  0.00    -0.300 OA
BRANCH   7   8
ATOM      8  C   UNL d   1     -41.814-123.023 -53.717  0.00  0.00     0.118 A 
ATOM      9  C   UNL d   1     -42.128-122.566 -54.321  0.00  0.00     0.104 A 
ATOM     10  N   UNL d   1     -42.634-121.937 -54.143  0.00  0.00    -0.242 NA
ATOM     11  C   UNL d   1     -41.943-122.732 -55.106  0.00  0.00     0.020 A 
ATOM     12  C   UNL d   1     -42.948-121.481 -54.745  0.00  0.00     0.099 A 
ATOM     13  C   UNL d   1     -42.765-121.643 -55.538  0.00  0.00     0.021 A 
ATOM     14  C   UNL d   1     -42.260-122.272 -55.712  0.00  0.00     0.003 A 
ATOM     15  C   UNL d   1     -41.438-123.361 -55.288  0.00  0.00     0.002 A 
ATOM     16  C   UNL d   1     -41.124-123.817 -54.677  0.00  0.00     0.002 A 
ATOM     17  C   UNL d   1     -41.308-123.652 -53.900  0.00  0.00     0.026 A 
ENDBRANCH   7   8
ENDBRANCH   6   7
ENDBRANCH   3   6
BRANCH   1  18
ATOM     18  C   UNL d   1     -41.123-122.020 -50.879  0.00  0.00     0.084 C 
BRANCH  18  19
ATOM     19  C   UNL d   1     -41.458-121.299 -51.100  0.00  0.00     0.019 C 
ATOM     20  C   UNL d   1     -41.125-120.595 -50.836  0.00  0.00     0.002 C 
ENDBRANCH  18  19
ENDBRANCH   1  18
BRANCH   2  21
ATOM     21  S   UNL d   1     -41.952-122.774 -49.481  0.00  0.00    -0.042 SA
BRANCH  21  22
ATOM     22  C   UNL d   1     -42.063-123.293 -48.850  0.00  0.00     0.107 C 
BRANCH  22  23
ATOM     23  C   UNL d   1     -41.936-123.046 -48.077  0.00  0.00     0.303 C 
ATOM     24  O   UNL d   1     -41.176-123.086 -47.748  0.00  0.00    -0.259 OA
BRANCH  23  25
ATOM     25  O   UNL d   1     -42.559-122.755 -47.621  0.00  0.00    -0.295 OA
ATOM     26  C   UNL d   1     -42.567-122.863 -46.806  0.00  0.00     0.185 C 
ENDBRANCH  23  25
ENDBRANCH  22  23
ENDBRANCH  21  22
ENDBRANCH   2  21
TORSDOF 9
ENDMDL
