MODEL 1
REMARK VINA RESULT:      -7.3      0.000      0.000
REMARK  4 active torsions:
REMARK  status: ('A' for Active; 'I' for Inactive)
REMARK    1  A    between atoms: C_2  and  C_1 
REMARK       I    between atoms: N_5  and  C_2 
REMARK    2  A    between atoms: C_10  and  N_5 
REMARK    3  A    between atoms: O_9  and  C_11 
REMARK    4  A    between atoms: C_12  and  O_9 
ROOT
ATOM      1  C   UNL d   1     -48.203  11.448  23.001  0.00  0.00     0.085 A 
ATOM      2  C   UNL d   1     -49.747  11.993  22.895  0.00  0.00     0.100 A 
ATOM      3  C   UNL d   1     -48.643  11.574  23.693  0.00  0.00     0.021 A 
ATOM      4  C   UNL d   1     -48.538  11.595  22.261  0.00  0.00     0.021 A 
ATOM      5  C   UNL d   1     -49.412  11.846  23.639  0.00  0.00     0.026 A 
ATOM      6  C   UNL d   1     -49.316  11.869  22.218  0.00  0.00     0.026 A 
ENDROOT
BRANCH   1   7
ATOM      7  N   UNL d   1     -47.428  11.174  23.053  0.00  0.00    -0.206 NA
ATOM      8  C   UNL d   1     -46.822  11.694  23.273  0.00  0.00     0.303 C 
ATOM      9  O   UNL d   1     -46.998  12.479  23.438  0.00  0.00    -0.263 OA
BRANCH   8  10
ATOM     10  C   UNL d   1     -46.046  11.421  23.325  0.00  0.00     0.176 A 
ATOM     11  C   UNL d   1     -45.379  11.798  23.016  0.00  0.00     0.110 A 
ATOM     12  N   UNL d   1     -44.719  11.338  23.192  0.00  0.00    -0.233 NA
ATOM     13  C   UNL d   1     -45.377  12.506  22.606  0.00  0.00     0.023 C 
ATOM     14  C   UNL d   1     -44.982  10.669  23.615  0.00  0.00     0.259 A 
ATOM     15  O   UNL d   1     -45.802  10.729  23.693  0.00  0.00    -0.296 OA
ENDBRANCH   8  10
ENDBRANCH   1   7
BRANCH   2  16
ATOM     16  O   UNL d   1     -50.526  12.268  22.849  0.00  0.00    -0.307 OA
BRANCH  16  17
ATOM     17  C   UNL d   1     -50.681  13.065  22.862  0.00  0.00     0.100 A 
ATOM     18  C   UNL d   1     -50.892  13.425  23.576  0.00  0.00     0.025 A 
ATOM     19  C   UNL d   1     -51.049  14.233  23.587  0.00  0.00     0.002 A 
ATOM     20  C   UNL d   1     -50.997  14.689  22.891  0.00  0.00     0.000 A 
ATOM     21  C   UNL d   1     -50.781  14.309  22.172  0.00  0.00     0.002 A 
ATOM     22  C   UNL d   1     -50.629  13.502  22.183  0.00  0.00     0.025 A 
ENDBRANCH  16  17
ENDBRANCH   2  16
TORSDOF 4
ENDMDL
MODEL 2
REMARK VINA RESULT:      -6.9      1.770      2.080
REMARK  4 active torsions:
REMARK  status: ('A' for Active; 'I' for Inactive)
REMARK    1  A    between atoms: C_2  and  C_1 
REMARK       I    between atoms: N_5  and  C_2 
REMARK    2  A    between atoms: C_10  and  N_5 
REMARK    3  A    between atoms: O_9  and  C_11 
REMARK    4  A    between atoms: C_12  and  O_9 
ROOT
ATOM      1  C   UNL d   1     -46.894  13.290  22.687  0.00  0.00     0.085 A 
ATOM      2  C   UNL d   1     -48.046  14.400  22.322  0.00  0.00     0.100 A 
ATOM      3  C   UNL d   1     -46.871  14.039  23.042  0.00  0.00     0.021 A 
ATOM      4  C   UNL d   1     -47.494  13.101  22.151  0.00  0.00     0.021 A 
ATOM      5  C   UNL d   1     -47.445  14.591  22.859  0.00  0.00     0.026 A 
ATOM      6  C   UNL d   1     -48.069  13.667  21.974  0.00  0.00     0.026 A 
ENDROOT
BRANCH   1   7
ATOM      7  N   UNL d   1     -46.317  12.731  22.869  0.00  0.00    -0.206 NA
ATOM      8  C   UNL d   1     -45.581  12.762  22.490  0.00  0.00     0.303 C 
ATOM      9  O   UNL d   1     -45.432  13.349  21.935  0.00  0.00    -0.263 OA
BRANCH   8  10
ATOM     10  C   UNL d   1     -45.003  12.204  22.672  0.00  0.00     0.176 A 
ATOM     11  C   UNL d   1     -44.252  12.155  22.329  0.00  0.00     0.110 A 
ATOM     12  N   UNL d   1     -43.855  11.519  22.670  0.00  0.00    -0.233 NA
ATOM     13  C   UNL d   1     -43.958  12.653  21.751  0.00  0.00     0.023 C 
ATOM     14  C   UNL d   1     -44.366  11.171  23.229  0.00  0.00     0.259 A 
ATOM     15  O   UNL d   1     -45.072  11.600  23.224  0.00  0.00    -0.296 OA
ENDBRANCH   8  10
ENDBRANCH   1   7
BRANCH   2  16
ATOM     16  O   UNL d   1     -48.623  14.964  22.142  0.00  0.00    -0.307 OA
BRANCH  16  17
ATOM     17  C   UNL d   1     -49.319  14.985  22.559  0.00  0.00     0.100 A 
ATOM     18  C   UNL d   1     -49.383  15.480  23.219  0.00  0.00     0.025 A 
ATOM     19  C   UNL d   1     -50.090  15.499  23.640  0.00  0.00     0.002 A 
ATOM     20  C   UNL d   1     -50.739  15.029  23.410  0.00  0.00     0.000 A 
ATOM     21  C   UNL d   1     -50.660  14.531  22.736  0.00  0.00     0.002 A 
ATOM     22  C   UNL d   1     -49.946  14.526  22.330  0.00  0.00     0.025 A 
ENDBRANCH  16  17
ENDBRANCH   2  16
TORSDOF 4
ENDMDL
MODEL 3
REMARK VINA RESULT:      -6.6      1.598      1.968
REMARK  4 active torsions:
REMARK  status: ('A' for Active; 'I' for Inactive)
REMARK    1  A    between atoms: C_2  and  C_1 
REMARK       I    between atoms: N_5  and  C_2 
REMARK    2  A    between atoms: C_10  and  N_5 
REMARK    3  A    between atoms: O_9  and  C_11 
REMARK    4  A    between atoms: C_12  and  O_9 
ROOT
ATOM      1  C   UNL d   1     -46.980  13.194  22.411  0.00  0.00     0.085 A 
ATOM      2  C   UNL d   1     -48.479  13.426  23.036  0.00  0.00     0.100 A 
ATOM      3  C   UNL d   1     -47.510  12.557  22.457  0.00  0.00     0.021 A 
ATOM      4  C   UNL d   1     -47.204  13.942  22.679  0.00  0.00     0.021 A 
ATOM      5  C   UNL d   1     -48.256  12.674  22.768  0.00  0.00     0.026 A 
ATOM      6  C   UNL d   1     -47.961  14.049  22.991  0.00  0.00     0.026 A 
ENDROOT
BRANCH   1   7
ATOM      7  N   UNL d   1     -46.227  13.079  22.098  0.00  0.00    -0.206 NA
ATOM      8  C   UNL d   1     -45.609  12.833  22.592  0.00  0.00     0.303 C 
ATOM      9  O   UNL d   1     -45.751  12.706  23.391  0.00  0.00    -0.263 OA
BRANCH   8  10
ATOM     10  C   UNL d   1     -44.855  12.718  22.279  0.00  0.00     0.176 A 
ATOM     11  C   UNL d   1     -44.346  12.093  22.462  0.00  0.00     0.110 A 
ATOM     12  N   UNL d   1     -43.654  12.191  22.028  0.00  0.00    -0.233 NA
ATOM     13  C   UNL d   1     -44.505  11.484  22.984  0.00  0.00     0.023 C 
ATOM     14  C   UNL d   1     -43.735  12.884  21.572  0.00  0.00     0.259 A 
ATOM     15  O   UNL d   1     -44.480  13.203  21.733  0.00  0.00    -0.296 OA
ENDBRANCH   8  10
ENDBRANCH   1   7
BRANCH   2  16
ATOM     16  O   UNL d   1     -49.236  13.536  23.350  0.00  0.00    -0.307 OA
BRANCH  16  17
ATOM     17  C   UNL d   1     -49.838  13.815  22.881  0.00  0.00     0.100 A 
ATOM     18  C   UNL d   1     -50.007  14.625  22.876  0.00  0.00     0.025 A 
ATOM     19  C   UNL d   1     -50.617  14.904  22.399  0.00  0.00     0.002 A 
ATOM     20  C   UNL d   1     -51.064  14.383  21.925  0.00  0.00     0.000 A 
ATOM     21  C   UNL d   1     -50.881  13.562  21.940  0.00  0.00     0.002 A 
ATOM     22  C   UNL d   1     -50.268  13.304  22.423  0.00  0.00     0.025 A 
ENDBRANCH  16  17
ENDBRANCH   2  16
TORSDOF 4
ENDMDL
MODEL 4
REMARK VINA RESULT:      -5.6      9.155     10.831
REMARK  4 active torsions:
REMARK  status: ('A' for Active; 'I' for Inactive)
REMARK    1  A    between atoms: C_2  and  C_1 
REMARK       I    between atoms: N_5  and  C_2 
REMARK    2  A    between atoms: C_10  and  N_5 
REMARK    3  A    between atoms: O_9  and  C_11 
REMARK    4  A    between atoms: C_12  and  O_9 
ROOT
ATOM      1  C   UNL d   1     -39.955  15.263  17.934  0.00  0.00     0.085 A 
ATOM      2  C   UNL d   1     -40.566  15.154  19.453  0.00  0.00     0.100 A 
ATOM      3  C   UNL d   1     -40.280  14.546  18.196  0.00  0.00     0.021 A 
ATOM      4  C   UNL d   1     -39.937  15.920  18.434  0.00  0.00     0.021 A 
ATOM      5  C   UNL d   1     -40.585  14.494  18.953  0.00  0.00     0.026 A 
ATOM      6  C   UNL d   1     -40.247  15.855  19.196  0.00  0.00     0.026 A 
ENDROOT
BRANCH   1   7
ATOM      7  N   UNL d   1     -39.647  15.319  17.172  0.00  0.00    -0.206 NA
ATOM      8  C   UNL d   1     -38.838  15.193  17.044  0.00  0.00     0.303 C 
ATOM      9  O   UNL d   1     -38.348  15.013  17.679  0.00  0.00    -0.263 OA
BRANCH   8  10
ATOM     10  C   UNL d   1     -38.530  15.249  16.282  0.00  0.00     0.176 A 
ATOM     11  C   UNL d   1     -38.164  14.638  15.862  0.00  0.00     0.110 A 
ATOM     12  N   UNL d   1     -37.940  14.931  15.127  0.00  0.00    -0.233 NA
ATOM     13  C   UNL d   1     -38.047  13.875  16.134  0.00  0.00     0.023 C 
ATOM     14  C   UNL d   1     -38.169  15.732  15.092  0.00  0.00     0.259 A 
ATOM     15  O   UNL d   1     -38.533  15.920  15.809  0.00  0.00    -0.296 OA
ENDBRANCH   8  10
ENDBRANCH   1   7
BRANCH   2  16
ATOM     16  O   UNL d   1     -40.876  15.093  20.217  0.00  0.00    -0.307 OA
BRANCH  16  17
ATOM     17  C   UNL d   1     -40.382  14.982  20.852  0.00  0.00     0.100 A 
ATOM     18  C   UNL d   1     -40.103  15.640  21.269  0.00  0.00     0.025 A 
ATOM     19  C   UNL d   1     -39.602  15.524  21.912  0.00  0.00     0.002 A 
ATOM     20  C   UNL d   1     -39.375  14.757  22.147  0.00  0.00     0.000 A 
ATOM     21  C   UNL d   1     -39.667  14.098  21.714  0.00  0.00     0.002 A 
ATOM     22  C   UNL d   1     -40.166  14.234  21.075  0.00  0.00     0.025 A 
ENDBRANCH  16  17
ENDBRANCH   2  16
TORSDOF 4
ENDMDL
MODEL 5
REMARK VINA RESULT:      -5.6      2.011      5.248
REMARK  4 active torsions:
REMARK  status: ('A' for Active; 'I' for Inactive)
REMARK    1  A    between atoms: C_2  and  C_1 
REMARK       I    between atoms: N_5  and  C_2 
REMARK    2  A    between atoms: C_10  and  N_5 
REMARK    3  A    between atoms: O_9  and  C_11 
REMARK    4  A    between atoms: C_12  and  O_9 
ROOT
ATOM      1  C   UNL d   1     -47.841  13.768  22.423  0.00  0.00     0.085 A 
ATOM      2  C   UNL d   1     -46.401  13.177  22.943  0.00  0.00     0.100 A 
ATOM      3  C   UNL d   1     -47.275  14.284  22.741  0.00  0.00     0.021 A 
ATOM      4  C   UNL d   1     -47.683  12.959  22.367  0.00  0.00     0.021 A 
ATOM      5  C   UNL d   1     -46.559  13.988  23.000  0.00  0.00     0.026 A 
ATOM      6  C   UNL d   1     -46.955  12.672  22.632  0.00  0.00     0.026 A 
ENDROOT
BRANCH   1   7
ATOM      7  N   UNL d   1     -48.564  14.063  22.161  0.00  0.00    -0.206 NA
ATOM      8  C   UNL d   1     -49.207  14.099  22.683  0.00  0.00     0.303 C 
ATOM      9  O   UNL d   1     -49.119  13.840  23.457  0.00  0.00    -0.263 OA
BRANCH   8  10
ATOM     10  C   UNL d   1     -49.930  14.394  22.422  0.00  0.00     0.176 A 
ATOM     11  C   UNL d   1     -50.325  15.051  22.731  0.00  0.00     0.110 A 
ATOM     12  N   UNL d   1     -51.025  15.152  22.310  0.00  0.00    -0.233 NA
ATOM     13  C   UNL d   1     -50.063  15.518  23.349  0.00  0.00     0.023 C 
ATOM     14  C   UNL d   1     -51.064  14.550  21.734  0.00  0.00     0.259 A 
ATOM     15  O   UNL d   1     -50.384  14.087  21.810  0.00  0.00    -0.296 OA
ENDBRANCH   8  10
ENDBRANCH   1   7
BRANCH   2  16
ATOM     16  O   UNL d   1     -45.674  12.885  23.208  0.00  0.00    -0.307 OA
BRANCH  16  17
ATOM     17  C   UNL d   1     -45.067  12.763  22.683  0.00  0.00     0.100 A 
ATOM     18  C   UNL d   1     -44.642  12.053  22.712  0.00  0.00     0.025 A 
ATOM     19  C   UNL d   1     -44.026  11.932  22.179  0.00  0.00     0.002 A 
ATOM     20  C   UNL d   1     -43.828  12.512  21.613  0.00  0.00     0.000 A 
ATOM     21  C   UNL d   1     -44.269  13.228  21.595  0.00  0.00     0.002 A 
ATOM     22  C   UNL d   1     -44.880  13.330  22.136  0.00  0.00     0.025 A 
ENDBRANCH  16  17
ENDBRANCH   2  16
TORSDOF 4
ENDMDL
MODEL 6
REMARK VINA RESULT:      -5.5      9.083     10.117
REMARK  4 active torsions:
REMARK  status: ('A' for Active; 'I' for Inactive)
REMARK    1  A    between atoms: C_2  and  C_1 
REMARK       I    between atoms: N_5  and  C_2 
REMARK    2  A    between atoms: C_10  and  N_5 
REMARK    3  A    between atoms: O_9  and  C_11 
REMARK    4  A    between atoms: C_12  and  O_9 
ROOT
ATOM      1  C   UNL d   1     -40.157  15.221  20.650  0.00  0.00     0.085 A 
ATOM      2  C   UNL d   1     -40.570  15.079  19.068  0.00  0.00     0.100 A 
ATOM      3  C   UNL d   1     -40.489  14.513  20.373  0.00  0.00     0.021 A 
ATOM      4  C   UNL d   1     -40.034  15.853  20.134  0.00  0.00     0.021 A 
ATOM      5  C   UNL d   1     -40.694  14.444  19.585  0.00  0.00     0.026 A 
ATOM      6  C   UNL d   1     -40.245  15.772  19.339  0.00  0.00     0.026 A 
ENDROOT
BRANCH   1   7
ATOM      7  N   UNL d   1     -39.950  15.293  21.444  0.00  0.00    -0.206 NA
ATOM      8  C   UNL d   1     -39.169  15.149  21.680  0.00  0.00     0.303 C 
ATOM      9  O   UNL d   1     -38.607  14.934  21.121  0.00  0.00    -0.263 OA
BRANCH   8  10
ATOM     10  C   UNL d   1     -38.960  15.221  22.474  0.00  0.00     0.176 A 
ATOM     11  C   UNL d   1     -38.630  14.627  22.944  0.00  0.00     0.110 A 
ATOM     12  N   UNL d   1     -38.509  14.933  23.698  0.00  0.00    -0.233 NA
ATOM     13  C   UNL d   1     -38.454  13.866  22.698  0.00  0.00     0.023 C 
ATOM     14  C   UNL d   1     -38.768  15.726  23.695  0.00  0.00     0.259 A 
ATOM     15  O   UNL d   1     -39.045  15.895  22.935  0.00  0.00    -0.296 OA
ENDBRANCH   8  10
ENDBRANCH   1   7
BRANCH   2  16
ATOM     16  O   UNL d   1     -40.780  15.001  18.272  0.00  0.00    -0.307 OA
BRANCH  16  17
ATOM     17  C   UNL d   1     -40.213  14.844  17.712  0.00  0.00     0.100 A 
ATOM     18  C   UNL d   1     -39.906  14.078  17.650  0.00  0.00     0.025 A 
ATOM     19  C   UNL d   1     -39.331  13.922  17.081  0.00  0.00     0.002 A 
ATOM     20  C   UNL d   1     -39.058  14.522  16.571  0.00  0.00     0.000 A 
ATOM     21  C   UNL d   1     -39.380  15.296  16.646  0.00  0.00     0.002 A 
ATOM     22  C   UNL d   1     -39.952  15.431  17.220  0.00  0.00     0.025 A 
ENDBRANCH  16  17
ENDBRANCH   2  16
TORSDOF 4
ENDMDL
