MODEL 1
REMARK VINA RESULT:      -6.3      0.000      0.000
REMARK  4 active torsions:
REMARK  status: ('A' for Active; 'I' for Inactive)
REMARK    1  A    between atoms: C_3  and  N_1 
REMARK       I    between atoms: C_2  and  N_5 
REMARK       I    between atoms: N_4  and  C_2 
REMARK    2  A    between atoms: C_17  and  N_4 
REMARK    3  A    between atoms: N_5  and  C_16 
REMARK    4  A    between atoms: C_8  and  C_9 
ROOT
ATOM      1  C   UNL d   1     -41.463-123.416 -51.684  0.00  0.00     0.369 C 
ATOM      2  N   UNL d   1     -41.228-123.817 -50.979  0.00  0.00    -0.191 NA
ATOM      3  N   UNL d   1     -41.123-123.595 -52.391  0.00  0.00    -0.191 NA
ATOM      4  O   UNL d   1     -42.046-122.845 -51.614  0.00  0.00    -0.242 OA
ENDROOT
BRANCH   3   5
ATOM      5  C   UNL d   1     -41.386-123.170 -53.076  0.00  0.00     0.086 A 
ATOM      6  C   UNL d   1     -41.316-122.347 -53.109  0.00  0.00     0.021 A 
ATOM      7  C   UNL d   1     -41.568-121.920 -53.770  0.00  0.00     0.025 A 
ATOM      8  C   UNL d   1     -41.889-122.351 -54.388  0.00  0.00     0.127 A 
ATOM      9  C   UNL d   1     -41.976-123.192 -54.390  0.00  0.00     0.025 A 
ATOM     10  C   UNL d   1     -41.711-123.576 -53.709  0.00  0.00     0.021 A 
BRANCH   8  11
ATOM     11  N   UNL d   1     -42.156-121.895 -55.090  0.00  0.00    -0.114 N 
ATOM     12  O   UNL d   1     -42.957-121.716 -55.168  0.00  0.00    -0.532 OA
ATOM     13  O   UNL d   1     -41.608-121.650 -55.661  0.00  0.00    -0.532 OA
ENDBRANCH   8  11
ENDBRANCH   3   5
BRANCH   2  14
ATOM     14  C   UNL d   1     -41.568-123.644 -50.250  0.00  0.00     0.086 A 
ATOM     15  C   UNL d   1     -42.364-123.816 -50.115  0.00  0.00     0.019 A 
ATOM     16  C   UNL d   1     -42.699-123.646 -49.398  0.00  0.00     0.005 A 
ATOM     17  C   UNL d   1     -42.252-123.293 -48.772  0.00  0.00     0.039 A 
ATOM     18  C   UNL d   1     -41.464-123.129 -48.921  0.00  0.00     0.005 A 
ATOM     19  C   UNL d   1     -41.123-123.304 -49.656  0.00  0.00     0.019 A 
BRANCH  17  20
ATOM     20  C   UNL d   1     -42.562-123.117 -48.055  0.00  0.00     0.196 C 
ATOM     21  O   UNL d   1     -43.043-122.479 -47.964  0.00  0.00    -0.287 OA
ATOM     22  C   UNL d   1     -42.396-123.580 -47.401  0.00  0.00     0.045 C 
ENDBRANCH  17  20
ENDBRANCH   2  14
TORSDOF 4
ENDMDL
MODEL 2
REMARK VINA RESULT:      -5.8      1.219      5.277
REMARK  4 active torsions:
REMARK  status: ('A' for Active; 'I' for Inactive)
REMARK    1  A    between atoms: C_3  and  N_1 
REMARK       I    between atoms: C_2  and  N_5 
REMARK       I    between atoms: N_4  and  C_2 
REMARK    2  A    between atoms: C_17  and  N_4 
REMARK    3  A    between atoms: N_5  and  C_16 
REMARK    4  A    between atoms: C_8  and  C_9 
ROOT
ATOM      1  C   UNL d   1     -41.486-122.343 -51.819  0.00  0.00     0.369 C 
ATOM      2  N   UNL d   1     -41.123-122.006 -52.503  0.00  0.00    -0.191 NA
ATOM      3  N   UNL d   1     -41.144-122.270 -51.095  0.00  0.00    -0.191 NA
ATOM      4  O   UNL d   1     -42.192-122.743 -51.929  0.00  0.00    -0.242 OA
ENDROOT
BRANCH   3   5
ATOM      5  C   UNL d   1     -41.539-122.622 -50.433  0.00  0.00     0.086 A 
ATOM      6  C   UNL d   1     -42.262-122.320 -50.168  0.00  0.00     0.021 A 
ATOM      7  C   UNL d   1     -42.659-122.653 -49.525  0.00  0.00     0.025 A 
ATOM      8  C   UNL d   1     -42.301-123.296 -49.163  0.00  0.00     0.127 A 
ATOM      9  C   UNL d   1     -41.565-123.632 -49.405  0.00  0.00     0.025 A 
ATOM     10  C   UNL d   1     -41.205-123.266 -50.052  0.00  0.00     0.021 A 
BRANCH   8  11
ATOM     11  N   UNL d   1     -42.725-123.648 -48.479  0.00  0.00    -0.114 N 
ATOM     12  O   UNL d   1     -43.529-123.816 -48.551  0.00  0.00    -0.532 OA
ATOM     13  O   UNL d   1     -42.318-123.809 -47.775  0.00  0.00    -0.532 OA
ENDBRANCH   8  11
ENDBRANCH   3   5
BRANCH   2  14
ATOM     14  C   UNL d   1     -41.461-122.074 -53.250  0.00  0.00     0.086 A 
ATOM     15  C   UNL d   1     -41.324-122.749 -53.704  0.00  0.00     0.019 A 
ATOM     16  C   UNL d   1     -41.656-122.817 -54.439  0.00  0.00     0.005 A 
ATOM     17  C   UNL d   1     -42.147-122.208 -54.762  0.00  0.00     0.039 A 
ATOM     18  C   UNL d   1     -42.272-121.544 -54.300  0.00  0.00     0.005 A 
ATOM     19  C   UNL d   1     -41.931-121.476 -53.547  0.00  0.00     0.019 A 
BRANCH  17  20
ATOM     20  C   UNL d   1     -42.486-122.252 -55.487  0.00  0.00     0.196 C 
ATOM     21  O   UNL d   1     -43.199-122.611 -55.581  0.00  0.00    -0.287 OA
ATOM     22  C   UNL d   1     -42.115-121.935 -56.144  0.00  0.00     0.045 C 
ENDBRANCH  17  20
ENDBRANCH   2  14
TORSDOF 4
ENDMDL
