MODEL 1
REMARK VINA RESULT:      -8.7      0.000      0.000
REMARK  4 active torsions:
REMARK  status: ('A' for Active; 'I' for Inactive)
REMARK    1  A    between atoms: C_2  and  C_1 
REMARK    2  A    between atoms: C_4  and  C_2 
REMARK       I    between atoms: C_3  and  N_6 
REMARK    3  A    between atoms: C_7  and  C_3 
REMARK    4  A    between atoms: N_6  and  C_5 
ROOT
ATOM      1  C   UNL d   1     -49.446  12.924  22.828  0.00  0.00     0.058 A 
ATOM      2  C   UNL d   1     -48.673  12.655  23.042  0.00  0.00     0.088 A 
ATOM      3  C   UNL d   1     -50.091  12.501  23.047  0.00  0.00     0.016 A 
ATOM      4  C   UNL d   1     -48.623  11.954  23.475  0.00  0.00     0.020 A 
ATOM      5  C   UNL d   1     -50.013  11.803  23.479  0.00  0.00     0.058 A 
ATOM      6  C   UNL d   1     -49.291  11.529  23.693  0.00  0.00     0.013 A 
ATOM      7 CL   UNL d   1     -50.709  11.374  23.698  0.00  0.00    -0.082 Cl
ENDROOT
BRANCH   1   8
ATOM      8  C   UNL d   1     -49.552  13.619  22.396  0.00  0.00     0.198 C 
ATOM      9  O   UNL d   1     -49.238  13.652  21.632  0.00  0.00    -0.286 OA
BRANCH   8  10
ATOM     10  C   UNL d   1     -49.954  14.267  22.702  0.00  0.00     0.050 A 
ATOM     11  C   UNL d   1     -50.620  14.562  22.315  0.00  0.00     0.061 A 
ATOM     12 CL   UNL d   1     -50.911  14.221  21.604  0.00  0.00    -0.082 Cl
ATOM     13  C   UNL d   1     -51.023  15.216  22.629  0.00  0.00     0.011 A 
ATOM     14  C   UNL d   1     -50.760  15.573  23.326  0.00  0.00     0.001 A 
ATOM     15  C   UNL d   1     -50.092  15.258  23.694  0.00  0.00     0.000 A 
ATOM     16  C   UNL d   1     -49.689  14.603  23.379  0.00  0.00     0.004 A 
ENDBRANCH   8  10
ENDBRANCH   1   8
BRANCH   2  17
ATOM     17  N   UNL d   1     -47.971  13.085  22.823  0.00  0.00    -0.206 NA
ATOM     18  C   UNL d   1     -47.251  12.820  23.053  0.00  0.00     0.302 C 
ATOM     19  O   UNL d   1     -47.174  12.133  23.502  0.00  0.00    -0.263 OA
BRANCH  18  20
ATOM     20  C   UNL d   1     -46.577  13.246  22.834  0.00  0.00     0.158 A 
ATOM     21  O   UNL d   1     -46.317  13.992  23.020  0.00  0.00    -0.300 OA
ATOM     22  C   UNL d   1     -45.617  14.106  22.639  0.00  0.00     0.123 A 
ATOM     23  C   UNL d   1     -45.413  13.479  22.220  0.00  0.00     0.029 A 
ATOM     24  C   UNL d   1     -46.021  12.905  22.329  0.00  0.00     0.032 A 
ENDBRANCH  18  20
ENDBRANCH   2  17
TORSDOF 4
ENDMDL
MODEL 2
REMARK VINA RESULT:      -8.5      1.297      2.551
REMARK  4 active torsions:
REMARK  status: ('A' for Active; 'I' for Inactive)
REMARK    1  A    between atoms: C_2  and  C_1 
REMARK    2  A    between atoms: C_4  and  C_2 
REMARK       I    between atoms: C_3  and  N_6 
REMARK    3  A    between atoms: C_7  and  C_3 
REMARK    4  A    between atoms: N_6  and  C_5 
ROOT
ATOM      1  C   UNL d   1     -48.442  13.804  22.262  0.00  0.00     0.058 A 
ATOM      2  C   UNL d   1     -47.642  14.027  22.422  0.00  0.00     0.088 A 
ATOM      3  C   UNL d   1     -49.029  14.345  22.331  0.00  0.00     0.016 A 
ATOM      4  C   UNL d   1     -47.506  14.809  22.648  0.00  0.00     0.020 A 
ATOM      5  C   UNL d   1     -48.866  15.121  22.558  0.00  0.00     0.058 A 
ATOM      6  C   UNL d   1     -48.116  15.356  22.716  0.00  0.00     0.013 A 
ATOM      7 CL   UNL d   1     -49.503  15.674  22.624  0.00  0.00    -0.082 Cl
ENDROOT
BRANCH   1   8
ATOM      8  C   UNL d   1     -48.633  13.034  22.033  0.00  0.00     0.198 C 
ATOM      9  O   UNL d   1     -48.320  12.753  21.322  0.00  0.00    -0.286 OA
BRANCH   8  10
ATOM     10  C   UNL d   1     -49.117  12.551  22.488  0.00  0.00     0.050 A 
ATOM     11  C   UNL d   1     -49.835  12.281  22.185  0.00  0.00     0.061 A 
ATOM     12 CL   UNL d   1     -50.098  12.483  21.413  0.00  0.00    -0.082 Cl
ATOM     13  C   UNL d   1     -50.321  11.793  22.649  0.00  0.00     0.011 A 
ATOM     14  C   UNL d   1     -50.090  11.578  23.412  0.00  0.00     0.001 A 
ATOM     15  C   UNL d   1     -49.367  11.862  23.692  0.00  0.00     0.000 A 
ATOM     16  C   UNL d   1     -48.880  12.350  23.227  0.00  0.00     0.004 A 
ENDBRANCH   8  10
ENDBRANCH   1   8
BRANCH   2  17
ATOM     17  N   UNL d   1     -46.999  13.473  22.357  0.00  0.00    -0.206 NA
ATOM     18  C   UNL d   1     -46.255  13.697  22.550  0.00  0.00     0.302 C 
ATOM     19  O   UNL d   1     -46.097  14.462  22.815  0.00  0.00    -0.263 OA
BRANCH  18  20
ATOM     20  C   UNL d   1     -45.639  13.150  22.482  0.00  0.00     0.158 A 
ATOM     21  O   UNL d   1     -45.450  12.484  22.905  0.00  0.00    -0.300 OA
ATOM     22  C   UNL d   1     -44.783  12.172  22.579  0.00  0.00     0.123 A 
ATOM     23  C   UNL d   1     -44.533  12.597  21.973  0.00  0.00     0.029 A 
ATOM     24  C   UNL d   1     -45.073  13.239  21.889  0.00  0.00     0.032 A 
ENDBRANCH  18  20
ENDBRANCH   2  17
TORSDOF 4
ENDMDL
MODEL 3
REMARK VINA RESULT:      -8.0      1.627      2.618
REMARK  4 active torsions:
REMARK  status: ('A' for Active; 'I' for Inactive)
REMARK    1  A    between atoms: C_2  and  C_1 
REMARK    2  A    between atoms: C_4  and  C_2 
REMARK       I    between atoms: C_3  and  N_6 
REMARK    3  A    between atoms: C_7  and  C_3 
REMARK    4  A    between atoms: N_6  and  C_5 
ROOT
ATOM      1  C   UNL d   1     -48.203  13.318  22.481  0.00  0.00     0.058 A 
ATOM      2  C   UNL d   1     -47.465  13.227  22.884  0.00  0.00     0.088 A 
ATOM      3  C   UNL d   1     -48.478  14.052  22.313  0.00  0.00     0.016 A 
ATOM      4  C   UNL d   1     -47.059  13.916  23.088  0.00  0.00     0.020 A 
ATOM      5  C   UNL d   1     -48.052  14.724  22.528  0.00  0.00     0.058 A 
ATOM      6  C   UNL d   1     -47.351  14.663  22.910  0.00  0.00     0.013 A 
ATOM      7 CL   UNL d   1     -48.364  15.488  22.338  0.00  0.00    -0.082 Cl
ENDROOT
BRANCH   1   8
ATOM      8  C   UNL d   1     -48.650  12.662  22.255  0.00  0.00     0.198 C 
ATOM      9  O   UNL d   1     -48.331  12.154  21.687  0.00  0.00    -0.286 OA
BRANCH   8  10
ATOM     10  C   UNL d   1     -49.390  12.506  22.577  0.00  0.00     0.050 A 
ATOM     11  C   UNL d   1     -50.053  12.465  22.088  0.00  0.00     0.061 A 
ATOM     12 CL   UNL d   1     -50.004  12.579  21.257  0.00  0.00    -0.082 Cl
ATOM     13  C   UNL d   1     -50.799  12.308  22.417  0.00  0.00     0.011 A 
ATOM     14  C   UNL d   1     -50.879  12.192  23.231  0.00  0.00     0.001 A 
ATOM     15  C   UNL d   1     -50.199  12.238  23.698  0.00  0.00     0.000 A 
ATOM     16  C   UNL d   1     -49.453  12.395  23.367  0.00  0.00     0.004 A 
ENDBRANCH   8  10
ENDBRANCH   1   8
BRANCH   2  17
ATOM     17  N   UNL d   1     -47.149  12.460  23.076  0.00  0.00    -0.206 NA
ATOM     18  C   UNL d   1     -46.361  12.366  23.188  0.00  0.00     0.302 C 
ATOM     19  O   UNL d   1     -45.845  13.006  23.120  0.00  0.00    -0.263 OA
BRANCH  18  20
ATOM     20  C   UNL d   1     -46.068  11.617  23.373  0.00  0.00     0.158 A 
ATOM     21  O   UNL d   1     -46.432  10.920  23.573  0.00  0.00    -0.300 OA
ATOM     22  C   UNL d   1     -45.856  10.371  23.693  0.00  0.00     0.123 A 
ATOM     23  C   UNL d   1     -45.144  10.673  23.582  0.00  0.00     0.029 A 
ATOM     24  C   UNL d   1     -45.254  11.483  23.373  0.00  0.00     0.032 A 
ENDBRANCH  18  20
ENDBRANCH   2  17
TORSDOF 4
ENDMDL
MODEL 4
REMARK VINA RESULT:      -6.1      8.792     10.439
REMARK  4 active torsions:
REMARK  status: ('A' for Active; 'I' for Inactive)
REMARK    1  A    between atoms: C_2  and  C_1 
REMARK    2  A    between atoms: C_4  and  C_2 
REMARK       I    between atoms: C_3  and  N_6 
REMARK    3  A    between atoms: C_7  and  C_3 
REMARK    4  A    between atoms: N_6  and  C_5 
ROOT
ATOM      1  C   UNL d   1     -39.686  14.994  20.386  0.00  0.00     0.058 A 
ATOM      2  C   UNL d   1     -39.920  14.655  19.647  0.00  0.00     0.088 A 
ATOM      3  C   UNL d   1     -40.219  15.398  20.827  0.00  0.00     0.016 A 
ATOM      4  C   UNL d   1     -40.704  14.762  19.414  0.00  0.00     0.020 A 
ATOM      5  C   UNL d   1     -40.997  15.490  20.571  0.00  0.00     0.058 A 
ATOM      6  C   UNL d   1     -41.242  15.179  19.875  0.00  0.00     0.013 A 
ATOM      7 CL   UNL d   1     -41.541  15.922  21.055  0.00  0.00    -0.082 Cl
ENDROOT
BRANCH   1   8
ATOM      8  C   UNL d   1     -38.913  14.915  20.665  0.00  0.00     0.198 C 
ATOM      9  O   UNL d   1     -38.301  15.220  20.201  0.00  0.00    -0.286 OA
BRANCH   8  10
ATOM     10  C   UNL d   1     -38.742  14.549  21.380  0.00  0.00     0.050 A 
ATOM     11  C   UNL d   1     -38.286  14.938  21.946  0.00  0.00     0.061 A 
ATOM     12 CL   UNL d   1     -37.981  15.711  21.821  0.00  0.00    -0.082 Cl
ATOM     13  C   UNL d   1     -38.117  14.564  22.668  0.00  0.00     0.011 A 
ATOM     14  C   UNL d   1     -38.402  13.804  22.821  0.00  0.00     0.001 A 
ATOM     15  C   UNL d   1     -38.856  13.436  22.237  0.00  0.00     0.000 A 
ATOM     16  C   UNL d   1     -39.026  13.812  21.515  0.00  0.00     0.004 A 
ENDBRANCH   8  10
ENDBRANCH   1   8
BRANCH   2  17
ATOM     17  N   UNL d   1     -39.374  14.221  19.158  0.00  0.00    -0.206 NA
ATOM     18  C   UNL d   1     -39.624  13.891  18.472  0.00  0.00     0.302 C 
ATOM     19  O   UNL d   1     -40.408  13.966  18.226  0.00  0.00    -0.263 OA
BRANCH  18  20
ATOM     20  C   UNL d   1     -39.085  13.472  18.007  0.00  0.00     0.158 A 
ATOM     21  O   UNL d   1     -38.652  12.800  18.142  0.00  0.00    -0.300 OA
ATOM     22  C   UNL d   1     -38.218  12.653  17.480  0.00  0.00     0.123 A 
ATOM     23  C   UNL d   1     -38.347  13.191  16.928  0.00  0.00     0.029 A 
ATOM     24  C   UNL d   1     -38.907  13.736  17.245  0.00  0.00     0.032 A 
ENDBRANCH  18  20
ENDBRANCH   2  17
TORSDOF 4
ENDMDL
