MODEL 1
REMARK VINA RESULT:      60.5      0.000      0.000
REMARK  5 active torsions:
REMARK  status: ('A' for Active; 'I' for Inactive)
REMARK    1  A    between atoms: C_11  and  N_1 
REMARK    2  A    between atoms: C_15  and  C_3 
REMARK    3  A    between atoms: N_4  and  C_7 
REMARK    4  A    between atoms: C_9  and  C_10 
REMARK       I    between atoms: C_10  and  N_12 
REMARK    5  A    between atoms: N_12  and  C_15 
ROOT
ATOM      1  C   UNL d   1     -55.771 -99.009 -43.704  0.00  0.00     0.141 C 
ENDROOT
BRANCH   1   2
ATOM      2  N   UNL d   1     -55.534 -99.744 -43.411  0.00  0.00    -0.203 NA
ATOM      3  C   UNL d   1     -55.432-100.379 -43.936  0.00  0.00     0.279 C 
ATOM      4  O   UNL d   1     -55.564-100.276 -44.727  0.00  0.00    -0.265 OA
BRANCH   3   5
ATOM      5  C   UNL d   1     -55.193-101.117 -43.635  0.00  0.00     0.059 A 
ATOM      6  C   UNL d   1     -55.114-101.219 -42.818  0.00  0.00     0.027 A 
ATOM      7  C   UNL d   1     -54.881-101.940 -42.528  0.00  0.00     0.127 A 
ATOM      8  C   UNL d   1     -55.274-100.584 -42.320  0.00  0.00     0.002 C 
ATOM      9  C   UNL d   1     -54.720-102.579 -43.038  0.00  0.00     0.024 A 
ATOM     10  C   UNL d   1     -54.797-102.487 -43.852  0.00  0.00     0.002 A 
ATOM     11  C   UNL d   1     -55.030-101.765 -44.146  0.00  0.00     0.005 A 
BRANCH   7  12
ATOM     12  N   UNL d   1     -54.805-102.030 -41.718  0.00  0.00    -0.114 N 
ATOM     13  O   UNL d   1     -54.815-101.373 -41.215  0.00  0.00    -0.532 OA
ATOM     14  O   UNL d   1     -54.717-102.790 -41.391  0.00  0.00    -0.532 OA
ENDBRANCH   7  12
ENDBRANCH   3   5
ENDBRANCH   1   2
BRANCH   1  15
ATOM     15  C   UNL d   1     -56.081 -98.950 -44.469  0.00  0.00     0.191 A 
ATOM     16  N   UNL d   1     -56.874 -98.875 -44.673  0.00  0.00    -0.264 N 
ATOM     17  C   UNL d   1     -56.939 -98.834 -45.488  0.00  0.00     0.227 A 
ATOM     18  N   UNL d   1     -56.170 -98.884 -45.808  0.00  0.00    -0.117 NA
ATOM     19  S   UNL d   1     -57.632 -98.757 -45.923  0.00  0.00    -0.036 SA
ATOM     20  N   UNL d   1     -55.636 -98.956 -45.173  0.00  0.00    -0.126 NA
BRANCH  16  21
ATOM     21  C   UNL d   1     -57.507 -98.846 -44.137  0.00  0.00     0.068 A 
ATOM     22  C   UNL d   1     -57.349 -98.839 -43.326  0.00  0.00     0.020 A 
ATOM     23  C   UNL d   1     -57.986 -98.809 -42.802  0.00  0.00     0.031 A 
ATOM     24  C   UNL d   1     -58.764 -98.788 -43.072  0.00  0.00     0.140 A 
ATOM     25  C   UNL d   1     -58.907 -98.796 -43.890  0.00  0.00     0.031 A 
ATOM     26  F   UNL d   1     -59.387 -98.759 -42.544  0.00  0.00    -0.204 F 
ATOM     27  C   UNL d   1     -58.278 -98.825 -44.423  0.00  0.00     0.020 A 
ENDBRANCH  16  21
ENDBRANCH   1  15
TORSDOF 5
ENDMDL
MODEL 2
REMARK VINA RESULT:      62.3      2.234      4.587
REMARK  5 active torsions:
REMARK  status: ('A' for Active; 'I' for Inactive)
REMARK    1  A    between atoms: C_11  and  N_1 
REMARK    2  A    between atoms: C_15  and  C_3 
REMARK    3  A    between atoms: N_4  and  C_7 
REMARK    4  A    between atoms: C_9  and  C_10 
REMARK       I    between atoms: C_10  and  N_12 
REMARK    5  A    between atoms: N_12  and  C_15 
ROOT
ATOM      1  C   UNL d   1     -55.571 -99.599 -43.592  0.00  0.00     0.141 C 
ENDROOT
BRANCH   1   2
ATOM      2  N   UNL d   1     -56.335 -99.472 -43.882  0.00  0.00    -0.203 NA
ATOM      3  C   UNL d   1     -56.908 -99.132 -43.387  0.00  0.00     0.279 C 
ATOM      4  O   UNL d   1     -56.717 -98.929 -42.628  0.00  0.00    -0.265 OA
BRANCH   3   5
ATOM      5  C   UNL d   1     -57.674 -99.006 -43.683  0.00  0.00     0.059 A 
ATOM      6  C   UNL d   1     -57.798 -98.986 -44.500  0.00  0.00     0.027 A 
ATOM      7  C   UNL d   1     -58.547 -98.863 -44.787  0.00  0.00     0.127 A 
ATOM      8  C   UNL d   1     -57.155 -99.091 -45.004  0.00  0.00     0.002 C 
ATOM      9  C   UNL d   1     -59.194 -98.757 -44.271  0.00  0.00     0.024 A 
ATOM     10  C   UNL d   1     -59.081 -98.776 -43.458  0.00  0.00     0.002 A 
ATOM     11  C   UNL d   1     -58.330 -98.899 -43.168  0.00  0.00     0.005 A 
BRANCH   7  12
ATOM     12  N   UNL d   1     -58.658 -98.845 -45.597  0.00  0.00    -0.114 N 
ATOM     13  O   UNL d   1     -59.419 -98.869 -45.922  0.00  0.00    -0.532 OA
ATOM     14  O   UNL d   1     -58.001 -98.801 -46.106  0.00  0.00    -0.532 OA
ENDBRANCH   7  12
ENDBRANCH   3   5
ENDBRANCH   1   2
BRANCH   1  15
ATOM     15  C   UNL d   1     -55.408-100.272 -43.139  0.00  0.00     0.191 A 
ATOM     16  N   UNL d   1     -55.174-101.008 -43.419  0.00  0.00    -0.264 N 
ATOM     17  C   UNL d   1     -55.072-101.516 -42.786  0.00  0.00     0.227 A 
ATOM     18  N   UNL d   1     -55.246-101.092 -42.088  0.00  0.00    -0.117 NA
ATOM     19  S   UNL d   1     -54.840-102.304 -42.819  0.00  0.00    -0.036 SA
ATOM     20  N   UNL d   1     -55.455-100.317 -42.308  0.00  0.00    -0.126 NA
BRANCH  16  21
ATOM     21  C   UNL d   1     -55.059-101.204 -44.217  0.00  0.00     0.068 A 
ATOM     22  C   UNL d   1     -55.140-101.991 -44.456  0.00  0.00     0.020 A 
ATOM     23  C   UNL d   1     -55.024-102.174 -45.252  0.00  0.00     0.031 A 
ATOM     24  C   UNL d   1     -54.831-101.593 -45.803  0.00  0.00     0.140 A 
ATOM     25  C   UNL d   1     -54.754-100.807 -45.548  0.00  0.00     0.031 A 
ATOM     26  F   UNL d   1     -54.719-101.785 -46.589  0.00  0.00    -0.204 F 
ATOM     27  C   UNL d   1     -54.868-100.612 -44.755  0.00  0.00     0.020 A 
ENDBRANCH  16  21
ENDBRANCH   1  15
TORSDOF 5
ENDMDL
