MODEL 1
REMARK VINA RESULT:      -1.5      0.000      0.000
REMARK  7 active torsions:
REMARK  status: ('A' for Active; 'I' for Inactive)
REMARK    1  A    between atoms: S_3  and  N_1 
REMARK    2  A    between atoms: C_18  and  S_3 
REMARK    3  A    between atoms: C_8  and  C_4 
REMARK    4  A    between atoms: S_5  and  N_9 
REMARK    5  A    between atoms: C_12  and  C_6 
REMARK    6  A    between atoms: N_9  and  C_19 
REMARK    7  A    between atoms: C_26  and  C_18 
ROOT
ATOM      1  N   UNL d   1      31.718  17.957 -23.873  0.00  0.00    -0.152 N 
ATOM      2  N   UNL d   1      31.688  18.684 -23.478  0.00  0.00    -0.155 NA
ATOM      3  C   UNL d   1      32.465  17.628 -23.736  0.00  0.00     0.098 A 
ATOM      4  C   UNL d   1      32.409  18.801 -23.100  0.00  0.00     0.104 A 
ATOM      5  C   UNL d   1      32.886  18.149 -23.261  0.00  0.00     0.041 A 
ENDROOT
BRANCH   4   6
ATOM      6  C   UNL d   1      32.617  19.452 -22.644  0.00  0.00     0.019 A 
ATOM      7  C   UNL d   1      32.418  20.204 -22.897  0.00  0.00     0.003 A 
ATOM      8  C   UNL d   1      32.627  20.859 -22.439  0.00  0.00     0.020 A 
ATOM      9  C   UNL d   1      33.036  20.755 -21.727  0.00  0.00     0.093 A 
ATOM     10  C   UNL d   1      33.233  19.993 -21.480  0.00  0.00     0.020 A 
ATOM     11  C   UNL d   1      33.027  19.344 -21.931  0.00  0.00     0.003 A 
BRANCH   9  12
ATOM     12  N   UNL d   1      33.241  21.413 -21.277  0.00  0.00    -0.162 NA
BRANCH  12  13
ATOM     13  S   UNL d   1      32.690  21.783 -20.800  0.00  0.00     0.266 S 
ATOM     14  O   UNL d   1      33.132  21.409 -20.209  0.00  0.00    -0.203 OA
ATOM     15  O   UNL d   1      32.324  21.998 -20.091  0.00  0.00    -0.203 OA
ATOM     16  C   UNL d   1      32.235  22.164 -21.368  0.00  0.00     0.165 C 
ENDBRANCH  12  13
ENDBRANCH   9  12
ENDBRANCH   4   6
BRANCH   1  17
ATOM     17  S   UNL d   1      31.109  17.629 -24.321  0.00  0.00     0.287 S 
ATOM     18  O   UNL d   1      31.770  17.950 -24.696  0.00  0.00    -0.198 OA
ATOM     19  O   UNL d   1      30.785  17.434 -25.052  0.00  0.00    -0.198 OA
BRANCH  17  20
ATOM     20  C   UNL d   1      30.485  17.330 -23.890  0.00  0.00     0.117 C 
BRANCH  20  21
ATOM     21  C   UNL d   1      29.756  17.201 -24.259  0.00  0.00     0.014 C 
ATOM     22  C   UNL d   1      29.098  16.992 -23.803  0.00  0.00     0.001 C 
ENDBRANCH  20  21
ENDBRANCH  17  20
ENDBRANCH   1  17
BRANCH   3  23
ATOM     23  C   UNL d   1      32.728  16.911 -24.025  0.00  0.00     0.046 A 
ATOM     24  C   UNL d   1      32.761  16.260 -23.502  0.00  0.00     0.142 A 
ATOM     25  F   UNL d   1      32.532  16.353 -22.715  0.00  0.00    -0.204 F 
ATOM     26  C   UNL d   1      33.027  15.527 -23.785  0.00  0.00     0.030 A 
ATOM     27  C   UNL d   1      33.241  15.453 -24.534  0.00  0.00     0.002 A 
ATOM     28  C   UNL d   1      33.207  16.104 -25.057  0.00  0.00     0.000 A 
ATOM     29  C   UNL d   1      32.956  16.850 -24.838  0.00  0.00     0.004 A 
ENDBRANCH   3  23
TORSDOF 7
ENDMDL
