MODEL 1
REMARK VINA RESULT:      39.0      0.000      0.000
REMARK  3 active torsions:
REMARK  status: ('A' for Active; 'I' for Inactive)
REMARK    1  A    between atoms: S_3  and  N_1 
REMARK    2  A    between atoms: C_7  and  C_4 
REMARK    3  A    between atoms: C_16  and  C_5 
ROOT
ATOM      1  N   UNL d   1      13.571  12.504  -3.668  0.00  0.00    -0.155 N 
ATOM      2  N   UNL d   1      13.724  12.003  -3.015  0.00  0.00    -0.156 NA
ATOM      3  C   UNL d   1      13.688  13.268  -3.438  0.00  0.00     0.096 A 
ATOM      4  C   UNL d   1      13.937  12.488  -2.385  0.00  0.00     0.103 A 
ATOM      5  C   UNL d   1      13.910  13.279  -2.662  0.00  0.00     0.041 A 
ENDROOT
BRANCH   3   6
ATOM      6  C   UNL d   1      13.595  13.932  -3.919  0.00  0.00     0.021 A 
ATOM      7  C   UNL d   1      14.234  14.450  -4.079  0.00  0.00     0.028 A 
ATOM      8  C   UNL d   1      14.141  15.116  -4.561  0.00  0.00     0.119 A 
ATOM      9  O   UNL d   1      14.662  15.675  -4.784  0.00  0.00    -0.300 OA
ATOM     10  C   UNL d   1      13.409  15.260  -4.880  0.00  0.00     0.119 A 
ATOM     11  C   UNL d   1      14.255  16.220  -5.278  0.00  0.00     0.304 A 
ATOM     12  O   UNL d   1      13.471  15.940  -5.324  0.00  0.00    -0.300 OA
ATOM     13  C   UNL d   1      12.769  14.787  -4.750  0.00  0.00     0.026 A 
ATOM     14  C   UNL d   1      12.862  14.121  -4.269  0.00  0.00     0.004 A 
ENDBRANCH   3   6
BRANCH   1  15
ATOM     15  S   UNL d   1      13.336  12.230  -4.425  0.00  0.00     0.266 S 
ATOM     16  O   UNL d   1      12.769  11.781  -4.045  0.00  0.00    -0.203 OA
ATOM     17  O   UNL d   1      13.927  12.702  -4.779  0.00  0.00    -0.203 OA
ATOM     18  C   UNL d   1      13.103  11.961  -5.153  0.00  0.00     0.165 C 
ENDBRANCH   1  15
BRANCH   4  19
ATOM     19  C   UNL d   1      14.139  12.250  -1.623  0.00  0.00     0.019 A 
ATOM     20  C   UNL d   1      13.503  12.183  -1.083  0.00  0.00     0.002 A 
ATOM     21  C   UNL d   1      13.694  11.939  -0.296  0.00  0.00     0.000 A 
ATOM     22  C   UNL d   1      14.481  11.780  -0.089  0.00  0.00     0.000 A 
ATOM     23  C   UNL d   1      15.065  11.859  -0.646  0.00  0.00     0.000 A 
ATOM     24  C   UNL d   1      14.887  12.091  -1.400  0.00  0.00     0.002 A 
ENDBRANCH   4  19
TORSDOF 3
ENDMDL
