MODEL 1
REMARK VINA RESULT:      -8.1      0.000      0.000
REMARK  4 active torsions:
REMARK  status: ('A' for Active; 'I' for Inactive)
REMARK    1  A    between atoms: C_11  and  C_4 
REMARK    2  A    between atoms: C_12  and  C_5 
REMARK    3  A    between atoms: C_7  and  C_11 
REMARK    4  A    between atoms: C_8  and  C_12 
ROOT
ATOM      1  N   UNL d   1      53.235  33.143  53.407  0.00  0.00    -0.246 NA
ATOM      2  C   UNL d   1      53.092  31.517  53.227  0.00  0.00     0.003 A 
ATOM      3  C   UNL d   1      53.746  31.833  53.615  0.00  0.00     0.019 A 
ATOM      4  C   UNL d   1      53.817  32.651  53.705  0.00  0.00     0.081 A 
ATOM      5  C   UNL d   1      52.581  32.835  53.020  0.00  0.00     0.081 A 
ATOM      6  C   UNL d   1      52.510  32.017  52.930  0.00  0.00     0.019 A 
ATOM      7  C   UNL d   1      53.022  30.712  53.139  0.00  0.00     0.000 C 
ENDROOT
BRANCH   4   8
ATOM      8  C   UNL d   1      54.492  32.956  54.104  0.00  0.00     0.019 C 
BRANCH   8   9
ATOM      9  C   UNL d   1      54.433  33.227  54.870  0.00  0.00     0.002 C 
ATOM     10  C   UNL d   1      55.058  33.638  55.235  0.00  0.00     0.000 C 
ENDBRANCH   8   9
ENDBRANCH   4   8
BRANCH   5  11
ATOM     11  C   UNL d   1      51.989  33.349  52.718  0.00  0.00     0.019 C 
BRANCH  11  12
ATOM     12  C   UNL d   1      51.338  33.539  53.174  0.00  0.00     0.002 C 
ATOM     13  C   UNL d   1      50.781  34.085  52.889  0.00  0.00     0.000 C 
ENDBRANCH  11  12
ENDBRANCH   5  11
TORSDOF 4
ENDMDL
MODEL 2
REMARK VINA RESULT:      -8.1      0.069      2.731
REMARK  4 active torsions:
REMARK  status: ('A' for Active; 'I' for Inactive)
REMARK    1  A    between atoms: C_11  and  C_4 
REMARK    2  A    between atoms: C_12  and  C_5 
REMARK    3  A    between atoms: C_7  and  C_11 
REMARK    4  A    between atoms: C_8  and  C_12 
ROOT
ATOM      1  N   UNL d   1      53.242  33.101  53.404  0.00  0.00    -0.246 NA
ATOM      2  C   UNL d   1      53.133  31.470  53.259  0.00  0.00     0.003 A 
ATOM      3  C   UNL d   1      52.544  31.951  52.946  0.00  0.00     0.019 A 
ATOM      4  C   UNL d   1      52.599  32.772  53.019  0.00  0.00     0.081 A 
ATOM      5  C   UNL d   1      53.833  32.628  53.718  0.00  0.00     0.081 A 
ATOM      6  C   UNL d   1      53.778  31.807  53.645  0.00  0.00     0.019 A 
ATOM      7  C   UNL d   1      53.079  30.662  53.187  0.00  0.00     0.000 C 
ENDROOT
BRANCH   4   8
ATOM      8  C   UNL d   1      51.987  33.249  52.693  0.00  0.00     0.019 C 
BRANCH   8   9
ATOM      9  C   UNL d   1      51.432  33.598  53.177  0.00  0.00     0.002 C 
ATOM     10  C   UNL d   1      50.840  34.097  52.870  0.00  0.00     0.000 C 
ENDBRANCH   8   9
ENDBRANCH   4   8
BRANCH   5  11
ATOM     11  C   UNL d   1      54.488  32.976  54.111  0.00  0.00     0.019 C 
BRANCH  11  12
ATOM     12  C   UNL d   1      54.437  33.173  54.903  0.00  0.00     0.002 C 
ATOM     13  C   UNL d   1      55.029  33.637  55.252  0.00  0.00     0.000 C 
ENDBRANCH  11  12
ENDBRANCH   5  11
TORSDOF 4
ENDMDL
MODEL 3
REMARK VINA RESULT:      -7.8      0.714      2.888
REMARK  4 active torsions:
REMARK  status: ('A' for Active; 'I' for Inactive)
REMARK    1  A    between atoms: C_11  and  C_4 
REMARK    2  A    between atoms: C_12  and  C_5 
REMARK    3  A    between atoms: C_7  and  C_11 
REMARK    4  A    between atoms: C_8  and  C_12 
ROOT
ATOM      1  N   UNL d   1      53.917  31.840  53.690  0.00  0.00    -0.246 NA
ATOM      2  C   UNL d   1      52.657  32.699  53.081  0.00  0.00     0.003 A 
ATOM      3  C   UNL d   1      52.663  31.879  53.023  0.00  0.00     0.019 A 
ATOM      4  C   UNL d   1      53.296  31.447  53.329  0.00  0.00     0.081 A 
ATOM      5  C   UNL d   1      53.917  32.658  53.752  0.00  0.00     0.081 A 
ATOM      6  C   UNL d   1      53.284  33.090  53.446  0.00  0.00     0.019 A 
ATOM      7  C   UNL d   1      52.033  33.125  52.779  0.00  0.00     0.000 C 
ENDROOT
BRANCH   4   8
ATOM      8  C   UNL d   1      53.285  30.608  53.260  0.00  0.00     0.019 C 
BRANCH   8   9
ATOM      9  C   UNL d   1      53.214  30.139  53.922  0.00  0.00     0.002 C 
ATOM     10  C   UNL d   1      53.197  29.309  53.867  0.00  0.00     0.000 C 
ENDBRANCH   8   9
ENDBRANCH   4   8
BRANCH   5  11
ATOM     11  C   UNL d   1      54.559  33.051  54.125  0.00  0.00     0.019 C 
BRANCH  11  12
ATOM     12  C   UNL d   1      54.490  33.312  54.897  0.00  0.00     0.002 C 
ATOM     13  C   UNL d   1      55.121  33.716  55.254  0.00  0.00     0.000 C 
ENDBRANCH  11  12
ENDBRANCH   5  11
TORSDOF 4
ENDMDL
MODEL 4
REMARK VINA RESULT:      -7.8      0.739      2.939
REMARK  4 active torsions:
REMARK  status: ('A' for Active; 'I' for Inactive)
REMARK    1  A    between atoms: C_11  and  C_4 
REMARK    2  A    between atoms: C_12  and  C_5 
REMARK    3  A    between atoms: C_7  and  C_11 
REMARK    4  A    between atoms: C_8  and  C_12 
ROOT
ATOM      1  N   UNL d   1      52.934  32.554  53.528  0.00  0.00    -0.246 NA
ATOM      2  C   UNL d   1      54.099  33.146  54.522  0.00  0.00     0.003 A 
ATOM      3  C   UNL d   1      53.436  33.601  54.348  0.00  0.00     0.019 A 
ATOM      4  C   UNL d   1      52.850  33.303  53.848  0.00  0.00     0.081 A 
ATOM      5  C   UNL d   1      53.592  32.096  53.698  0.00  0.00     0.081 A 
ATOM      6  C   UNL d   1      54.178  32.393  54.198  0.00  0.00     0.019 A 
ATOM      7  C   UNL d   1      54.676  33.439  55.015  0.00  0.00     0.000 C 
ENDROOT
BRANCH   4   8
ATOM      8  C   UNL d   1      52.179  33.783  53.681  0.00  0.00     0.019 C 
BRANCH   8   9
ATOM      9  C   UNL d   1      52.020  34.019  52.918  0.00  0.00     0.002 C 
ATOM     10  C   UNL d   1      51.294  34.376  52.716  0.00  0.00     0.000 C 
ENDBRANCH   8   9
ENDBRANCH   4   8
BRANCH   5  11
ATOM     11  C   UNL d   1      53.667  31.328  53.364  0.00  0.00     0.019 C 
BRANCH  11  12
ATOM     12  C   UNL d   1      53.315  30.686  53.726  0.00  0.00     0.002 C 
ATOM     13  C   UNL d   1      53.332  29.943  53.355  0.00  0.00     0.000 C 
ENDBRANCH  11  12
ENDBRANCH   5  11
TORSDOF 4
ENDMDL
MODEL 5
REMARK VINA RESULT:      -7.8      0.745      2.339
REMARK  4 active torsions:
REMARK  status: ('A' for Active; 'I' for Inactive)
REMARK    1  A    between atoms: C_11  and  C_4 
REMARK    2  A    between atoms: C_12  and  C_5 
REMARK    3  A    between atoms: C_7  and  C_11 
REMARK    4  A    between atoms: C_8  and  C_12 
ROOT
ATOM      1  N   UNL d   1      53.912  31.782  53.695  0.00  0.00    -0.246 NA
ATOM      2  C   UNL d   1      52.655  32.631  53.068  0.00  0.00     0.003 A 
ATOM      3  C   UNL d   1      53.281  33.026  53.427  0.00  0.00     0.019 A 
ATOM      4  C   UNL d   1      53.913  32.599  53.742  0.00  0.00     0.081 A 
ATOM      5  C   UNL d   1      53.292  31.381  53.340  0.00  0.00     0.081 A 
ATOM      6  C   UNL d   1      52.659  31.808  53.024  0.00  0.00     0.019 A 
ATOM      7  C   UNL d   1      52.032  33.051  52.757  0.00  0.00     0.000 C 
ENDROOT
BRANCH   4   8
ATOM      8  C   UNL d   1      54.545  33.021  54.105  0.00  0.00     0.019 C 
BRANCH   8   9
ATOM      9  C   UNL d   1      54.481  33.279  54.875  0.00  0.00     0.002 C 
ATOM     10  C   UNL d   1      55.093  33.709  55.242  0.00  0.00     0.000 C 
ENDBRANCH   8   9
ENDBRANCH   4   8
BRANCH   5  11
ATOM     11  C   UNL d   1      53.301  30.542  53.297  0.00  0.00     0.019 C 
BRANCH  11  12
ATOM     12  C   UNL d   1      53.207  30.095  53.975  0.00  0.00     0.002 C 
ATOM     13  C   UNL d   1      53.217  29.266  53.927  0.00  0.00     0.000 C 
ENDBRANCH  11  12
ENDBRANCH   5  11
TORSDOF 4
ENDMDL
MODEL 6
REMARK VINA RESULT:      -7.8      0.748      2.201
REMARK  4 active torsions:
REMARK  status: ('A' for Active; 'I' for Inactive)
REMARK    1  A    between atoms: C_11  and  C_4 
REMARK    2  A    between atoms: C_12  and  C_5 
REMARK    3  A    between atoms: C_7  and  C_11 
REMARK    4  A    between atoms: C_8  and  C_12 
ROOT
ATOM      1  N   UNL d   1      52.948  32.551  53.549  0.00  0.00    -0.246 NA
ATOM      2  C   UNL d   1      54.111  33.165  54.531  0.00  0.00     0.003 A 
ATOM      3  C   UNL d   1      54.197  32.412  54.212  0.00  0.00     0.019 A 
ATOM      4  C   UNL d   1      53.611  32.102  53.718  0.00  0.00     0.081 A 
ATOM      5  C   UNL d   1      52.856  33.302  53.863  0.00  0.00     0.081 A 
ATOM      6  C   UNL d   1      53.441  33.611  54.357  0.00  0.00     0.019 A 
ATOM      7  C   UNL d   1      54.687  33.469  55.017  0.00  0.00     0.000 C 
ENDROOT
BRANCH   4   8
ATOM      8  C   UNL d   1      53.716  31.330  53.402  0.00  0.00     0.019 C 
BRANCH   8   9
ATOM      9  C   UNL d   1      53.284  30.702  53.691  0.00  0.00     0.002 C 
ATOM     10  C   UNL d   1      53.344  29.942  53.356  0.00  0.00     0.000 C 
ENDBRANCH   8   9
ENDBRANCH   4   8
BRANCH   5  11
ATOM     11  C   UNL d   1      52.171  33.754  53.682  0.00  0.00     0.019 C 
BRANCH  11  12
ATOM     12  C   UNL d   1      52.082  34.088  52.941  0.00  0.00     0.002 C 
ATOM     13  C   UNL d   1      51.350  34.412  52.720  0.00  0.00     0.000 C 
ENDBRANCH  11  12
ENDBRANCH   5  11
TORSDOF 4
ENDMDL
MODEL 7
REMARK VINA RESULT:      -6.8      1.322      3.516
REMARK  4 active torsions:
REMARK  status: ('A' for Active; 'I' for Inactive)
REMARK    1  A    between atoms: C_11  and  C_4 
REMARK    2  A    between atoms: C_12  and  C_5 
REMARK    3  A    between atoms: C_7  and  C_11 
REMARK    4  A    between atoms: C_8  and  C_12 
ROOT
ATOM      1  N   UNL d   1      52.325  33.464  53.301  0.00  0.00    -0.246 NA
ATOM      2  C   UNL d   1      52.900  34.841  53.987  0.00  0.00     0.003 A 
ATOM      3  C   UNL d   1      52.293  34.879  53.432  0.00  0.00     0.019 A 
ATOM      4  C   UNL d   1      52.004  34.186  53.087  0.00  0.00     0.081 A 
ATOM      5  C   UNL d   1      52.929  33.419  53.853  0.00  0.00     0.081 A 
ATOM      6  C   UNL d   1      53.218  34.112  54.198  0.00  0.00     0.019 A 
ATOM      7  C   UNL d   1      53.184  35.523  54.326  0.00  0.00     0.000 C 
ENDROOT
BRANCH   4   8
ATOM      8  C   UNL d   1      51.384  34.245  52.522  0.00  0.00     0.019 C 
BRANCH   8   9
ATOM      9  C   UNL d   1      50.605  34.207  52.757  0.00  0.00     0.002 C 
ATOM     10  C   UNL d   1      49.982  34.330  52.218  0.00  0.00     0.000 C 
ENDBRANCH   8   9
ENDBRANCH   4   8
BRANCH   5  11
ATOM     11  C   UNL d   1      53.251  32.672  54.065  0.00  0.00     0.019 C 
BRANCH  11  12
ATOM     12  C   UNL d   1      53.775  32.293  53.566  0.00  0.00     0.002 C 
ATOM     13  C   UNL d   1      53.987  31.504  53.712  0.00  0.00     0.000 C 
ENDBRANCH  11  12
ENDBRANCH   5  11
TORSDOF 4
ENDMDL
MODEL 8
REMARK VINA RESULT:      -6.5      1.372      2.604
REMARK  4 active torsions:
REMARK  status: ('A' for Active; 'I' for Inactive)
REMARK    1  A    between atoms: C_11  and  C_4 
REMARK    2  A    between atoms: C_12  and  C_5 
REMARK    3  A    between atoms: C_7  and  C_11 
REMARK    4  A    between atoms: C_8  and  C_12 
ROOT
ATOM      1  N   UNL d   1      52.917  33.621  53.285  0.00  0.00    -0.246 NA
ATOM      2  C   UNL d   1      51.305  33.736  52.998  0.00  0.00     0.003 A 
ATOM      3  C   UNL d   1      51.690  33.016  52.901  0.00  0.00     0.019 A 
ATOM      4  C   UNL d   1      52.501  32.958  53.045  0.00  0.00     0.081 A 
ATOM      5  C   UNL d   1      52.539  34.342  53.384  0.00  0.00     0.081 A 
ATOM      6  C   UNL d   1      51.728  34.400  53.239  0.00  0.00     0.019 A 
ATOM      7  C   UNL d   1      50.506  33.793  52.855  0.00  0.00     0.000 C 
ENDROOT
BRANCH   4   8
ATOM      8  C   UNL d   1      52.878  32.213  52.941  0.00  0.00     0.019 C 
BRANCH   8   9
ATOM      9  C   UNL d   1      53.184  31.811  53.580  0.00  0.00     0.002 C 
ATOM     10  C   UNL d   1      53.513  31.050  53.498  0.00  0.00     0.000 C 
ENDBRANCH   8   9
ENDBRANCH   4   8
BRANCH   5  11
ATOM     11  C   UNL d   1      52.976  35.016  53.630  0.00  0.00     0.019 C 
BRANCH  11  12
ATOM     12  C   UNL d   1      52.924  35.281  54.401  0.00  0.00     0.002 C 
ATOM     13  C   UNL d   1      53.321  35.974  54.628  0.00  0.00     0.000 C 
ENDBRANCH  11  12
ENDBRANCH   5  11
TORSDOF 4
ENDMDL
MODEL 9
REMARK VINA RESULT:      -6.4      1.347      2.601
REMARK  4 active torsions:
REMARK  status: ('A' for Active; 'I' for Inactive)
REMARK    1  A    between atoms: C_11  and  C_4 
REMARK    2  A    between atoms: C_12  and  C_5 
REMARK    3  A    between atoms: C_7  and  C_11 
REMARK    4  A    between atoms: C_8  and  C_12 
ROOT
ATOM      1  N   UNL d   1      52.940  33.574  53.268  0.00  0.00    -0.246 NA
ATOM      2  C   UNL d   1      51.320  33.670  53.020  0.00  0.00     0.003 A 
ATOM      3  C   UNL d   1      51.741  34.337  53.252  0.00  0.00     0.019 A 
ATOM      4  C   UNL d   1      52.556  34.289  53.377  0.00  0.00     0.081 A 
ATOM      5  C   UNL d   1      52.526  32.905  53.037  0.00  0.00     0.081 A 
ATOM      6  C   UNL d   1      51.711  32.954  52.912  0.00  0.00     0.019 A 
ATOM      7  C   UNL d   1      50.517  33.718  52.898  0.00  0.00     0.000 C 
ENDROOT
BRANCH   4   8
ATOM      8  C   UNL d   1      52.971  34.982  53.614  0.00  0.00     0.019 C 
BRANCH   8   9
ATOM      9  C   UNL d   1      52.946  35.234  54.388  0.00  0.00     0.002 C 
ATOM     10  C   UNL d   1      53.322  35.938  54.628  0.00  0.00     0.000 C 
ENDBRANCH   8   9
ENDBRANCH   4   8
BRANCH   5  11
ATOM     11  C   UNL d   1      52.930  32.177  52.928  0.00  0.00     0.019 C 
BRANCH  11  12
ATOM     12  C   UNL d   1      53.143  31.724  53.574  0.00  0.00     0.002 C 
ATOM     13  C   UNL d   1      53.497  30.982  53.459  0.00  0.00     0.000 C 
ENDBRANCH  11  12
ENDBRANCH   5  11
TORSDOF 4
ENDMDL
