MODEL 1
REMARK VINA RESULT:       0.8      0.000      0.000
REMARK  5 active torsions:
REMARK  status: ('A' for Active; 'I' for Inactive)
REMARK    1  A    between atoms: C_14  and  C_3 
REMARK    2  A    between atoms: C_8  and  C_4 
REMARK    3  A    between atoms: N_10  and  C_9 
REMARK    4  A    between atoms: O_21  and  C_14 
REMARK    5  A    between atoms: C_25  and  O_21 
ROOT
ATOM      1  C   UNL d   1      57.771  -0.690  30.892  0.00  0.00     0.059 A 
ATOM      2  C   UNL d   1      57.223  -1.234  31.185  0.00  0.00     0.085 A 
ATOM      3  C   UNL d   1      58.165  -1.625  29.891  0.00  0.00     0.083 A 
ATOM      4  C   UNL d   1      58.238  -0.889  30.247  0.00  0.00     0.034 A 
ATOM      5  N   UNL d   1      57.142  -1.971  30.838  0.00  0.00    -0.245 NA
ATOM      6  C   UNL d   1      57.725  -0.006  31.351  0.00  0.00     0.197 A 
ATOM      7  C   UNL d   1      57.615  -2.171  30.185  0.00  0.00     0.087 A 
ATOM      8  C   UNL d   1      56.837  -0.885  31.828  0.00  0.00     0.021 A 
ATOM      9  C   UNL d   1      57.145  -0.129  31.931  0.00  0.00     0.041 A 
ATOM     10  O   UNL d   1      58.177   0.680  31.251  0.00  0.00    -0.286 OA
ATOM     11  C   UNL d   1      57.538  -2.911  29.831  0.00  0.00     0.021 C 
ATOM     12  C   UNL d   1      56.238  -1.159  32.339  0.00  0.00     0.002 A 
ATOM     13  C   UNL d   1      56.865   0.360  32.539  0.00  0.00     0.003 A 
ATOM     14  C   UNL d   1      55.963  -0.672  32.940  0.00  0.00     0.000 A 
ATOM     15  C   UNL d   1      56.269   0.082  33.044  0.00  0.00     0.000 A 
ENDROOT
BRANCH   4  16
ATOM     16  C   UNL d   1      58.786  -0.345  29.954  0.00  0.00     0.102 A 
ATOM     17  O   UNL d   1      59.593  -0.326  30.124  0.00  0.00    -0.286 OA
ATOM     18  C   UNL d   1      59.928   0.301  29.719  0.00  0.00     0.227 A 
ATOM     19  C   UNL d   1      59.334   0.681  29.292  0.00  0.00     0.051 A 
ATOM     20  C   UNL d   1      58.621   0.281  29.436  0.00  0.00     0.029 A 
BRANCH  18  21
ATOM     21  N   UNL d   1      60.727   0.527  29.729  0.00  0.00    -0.089 N 
ATOM     22  O   UNL d   1      61.113   0.661  30.441  0.00  0.00    -0.530 OA
ATOM     23  O   UNL d   1      61.132   0.615  29.009  0.00  0.00    -0.530 OA
ENDBRANCH  18  21
ENDBRANCH   4  16
BRANCH   3  24
ATOM     24  C   UNL d   1      58.634  -1.826  29.243  0.00  0.00     0.302 C 
ATOM     25  O   UNL d   1      58.464  -1.507  28.502  0.00  0.00    -0.259 OA
BRANCH  24  26
ATOM     26  O   UNL d   1      59.268  -2.343  29.335  0.00  0.00    -0.271 OA
BRANCH  26  27
ATOM     27  C   UNL d   1      59.513  -2.807  28.700  0.00  0.00     0.126 C 
ATOM     28  C   UNL d   1      60.274  -3.120  28.692  0.00  0.00     0.029 C 
ENDBRANCH  26  27
ENDBRANCH  24  26
ENDBRANCH   3  24
TORSDOF 5
ENDMDL
MODEL 2
REMARK VINA RESULT:       1.6      1.382      3.861
REMARK  5 active torsions:
REMARK  status: ('A' for Active; 'I' for Inactive)
REMARK    1  A    between atoms: C_14  and  C_3 
REMARK    2  A    between atoms: C_8  and  C_4 
REMARK    3  A    between atoms: N_10  and  C_9 
REMARK    4  A    between atoms: O_21  and  C_14 
REMARK    5  A    between atoms: C_25  and  O_21 
ROOT
ATOM      1  C   UNL d   1      58.871  -1.866  29.451  0.00  0.00     0.059 A 
ATOM      2  C   UNL d   1      59.499  -2.272  29.102  0.00  0.00     0.085 A 
ATOM      3  C   UNL d   1      59.694  -0.710  29.584  0.00  0.00     0.083 A 
ATOM      4  C   UNL d   1      58.973  -1.087  29.691  0.00  0.00     0.034 A 
ATOM      5  N   UNL d   1      60.222  -1.906  28.990  0.00  0.00    -0.245 NA
ATOM      6  C   UNL d   1      58.223  -2.374  29.488  0.00  0.00     0.197 A 
ATOM      7  C   UNL d   1      60.324  -1.118  29.233  0.00  0.00     0.087 A 
ATOM      8  C   UNL d   1      59.237  -3.036  28.921  0.00  0.00     0.021 A 
ATOM      9  C   UNL d   1      58.452  -3.101  29.158  0.00  0.00     0.041 A 
ATOM     10  O   UNL d   1      57.478  -2.194  29.798  0.00  0.00    -0.286 OA
ATOM     11  C   UNL d   1      61.050  -0.742  29.124  0.00  0.00     0.021 C 
ATOM     12  C   UNL d   1      59.615  -3.690  28.567  0.00  0.00     0.002 A 
ATOM     13  C   UNL d   1      58.036  -3.809  29.048  0.00  0.00     0.003 A 
ATOM     14  C   UNL d   1      59.201  -4.390  28.459  0.00  0.00     0.000 A 
ATOM     15  C   UNL d   1      58.418  -4.455  28.695  0.00  0.00     0.000 A 
ENDROOT
BRANCH   4  16
ATOM     16  C   UNL d   1      58.345  -0.681  30.040  0.00  0.00     0.102 A 
ATOM     17  O   UNL d   1      58.047  -0.805  30.800  0.00  0.00    -0.286 OA
ATOM     18  C   UNL d   1      57.427  -0.285  30.923  0.00  0.00     0.227 A 
ATOM     19  C   UNL d   1      57.331   0.170  30.241  0.00  0.00     0.051 A 
ATOM     20  C   UNL d   1      57.901  -0.073  29.690  0.00  0.00     0.029 A 
BRANCH  18  21
ATOM     21  N   UNL d   1      56.966  -0.217  31.610  0.00  0.00    -0.089 N 
ATOM     22  O   UNL d   1      56.432   0.400  31.693  0.00  0.00    -0.530 OA
ATOM     23  O   UNL d   1      57.052  -0.782  32.213  0.00  0.00    -0.530 OA
ENDBRANCH  18  21
ENDBRANCH   4  16
BRANCH   3  24
ATOM     24  C   UNL d   1      59.797   0.073  29.824  0.00  0.00     0.302 C 
ATOM     25  O   UNL d   1      59.756   0.679  29.266  0.00  0.00    -0.259 OA
BRANCH  24  26
ATOM     26  O   UNL d   1      59.941   0.249  30.615  0.00  0.00    -0.271 OA
BRANCH  26  27
ATOM     27  C   UNL d   1      60.638   0.632  30.830  0.00  0.00     0.126 C 
ATOM     28  C   UNL d   1      60.897   0.603  31.610  0.00  0.00     0.029 C 
ENDBRANCH  26  27
ENDBRANCH  24  26
ENDBRANCH   3  24
TORSDOF 5
ENDMDL
