MODEL 1
REMARK VINA RESULT:      -5.0      0.000      0.000
REMARK  4 active torsions:
REMARK  status: ('A' for Active; 'I' for Inactive)
REMARK    1  A    between atoms: C_5  and  N_1 
REMARK    2  A    between atoms: C_7  and  C_5 
REMARK    3  A    between atoms: O_11  and  C_8 
REMARK    4  A    between atoms: C_16  and  O_11 
ROOT
ATOM      1  N   UNL d   1      57.648   0.620  31.943  0.00  0.00    -0.251 N 
ATOM      2  C   UNL d   1      58.302   0.664  32.462  0.00  0.00     0.378 A 
ATOM      3  C   UNL d   1      57.930   0.615  31.170  0.00  0.00     0.092 A 
ATOM      4  O   UNL d   1      58.942   0.682  31.943  0.00  0.00    -0.258 OA
ATOM      5  C   UNL d   1      58.760   0.655  31.201  0.00  0.00     0.121 A 
ATOM      6  O   UNL d   1      58.269   0.682  33.291  0.00  0.00    -0.237 OA
ATOM      7  C   UNL d   1      57.546   0.579  30.444  0.00  0.00     0.020 A 
ATOM      8  C   UNL d   1      59.203   0.659  30.494  0.00  0.00     0.026 A 
ATOM      9  C   UNL d   1      57.990   0.584  29.737  0.00  0.00     0.002 A 
ATOM     10  C   UNL d   1      58.819   0.624  29.757  0.00  0.00     0.002 A 
ATOM     11  C   UNL d   1      57.593   0.547  28.998  0.00  0.00     0.000 C 
ENDROOT
BRANCH   1  12
ATOM     12  C   UNL d   1      56.863   0.588  32.177  0.00  0.00     0.087 C 
BRANCH  12  13
ATOM     13  C   UNL d   1      56.531  -0.121  32.435  0.00  0.00     0.041 A 
ATOM     14  C   UNL d   1      55.988  -0.113  33.054  0.00  0.00     0.101 A 
ATOM     15  C   UNL d   1      55.659  -0.824  33.309  0.00  0.00     0.025 A 
ATOM     16  C   UNL d   1      55.868  -1.537  32.952  0.00  0.00     0.002 A 
ATOM     17  C   UNL d   1      56.417  -1.539  32.328  0.00  0.00     0.000 A 
ATOM     18  C   UNL d   1      56.746  -0.828  32.073  0.00  0.00     0.004 A 
BRANCH  14  19
ATOM     19  O   UNL d   1      55.799   0.612  33.390  0.00  0.00    -0.307 OA
BRANCH  19  20
ATOM     20  C   UNL d   1      55.234   0.652  34.001  0.00  0.00     0.100 C 
ATOM     21  C   UNL d   1      55.480   0.671  34.790  0.00  0.00     0.027 C 
ATOM     22  C   UNL d   1      54.429   0.672  33.817  0.00  0.00     0.027 C 
ENDBRANCH  19  20
ENDBRANCH  14  19
ENDBRANCH  12  13
ENDBRANCH   1  12
TORSDOF 4
ENDMDL
MODEL 2
REMARK VINA RESULT:      -3.8      1.230      4.226
REMARK  4 active torsions:
REMARK  status: ('A' for Active; 'I' for Inactive)
REMARK    1  A    between atoms: C_5  and  N_1 
REMARK    2  A    between atoms: C_7  and  C_5 
REMARK    3  A    between atoms: O_11  and  C_8 
REMARK    4  A    between atoms: C_16  and  O_11 
ROOT
ATOM      1  N   UNL d   1      55.421   0.591  33.893  0.00  0.00    -0.251 N 
ATOM      2  C   UNL d   1      54.586   0.586  33.915  0.00  0.00     0.378 A 
ATOM      3  C   UNL d   1      55.700   0.619  34.666  0.00  0.00     0.092 A 
ATOM      4  O   UNL d   1      54.426   0.612  34.723  0.00  0.00    -0.258 OA
ATOM      5  C   UNL d   1      55.043   0.631  35.175  0.00  0.00     0.121 A 
ATOM      6  O   UNL d   1      54.079   0.561  33.258  0.00  0.00    -0.237 OA
ATOM      7  C   UNL d   1      56.462   0.634  34.976  0.00  0.00     0.020 A 
ATOM      8  C   UNL d   1      55.156   0.659  36.001  0.00  0.00     0.026 A 
ATOM      9  C   UNL d   1      56.574   0.663  35.803  0.00  0.00     0.002 A 
ATOM     10  C   UNL d   1      55.925   0.675  36.320  0.00  0.00     0.002 A 
ATOM     11  C   UNL d   1      57.354   0.678  36.114  0.00  0.00     0.000 C 
ENDROOT
BRANCH   1  12
ATOM     12  C   UNL d   1      55.874   0.572  33.210  0.00  0.00     0.087 C 
BRANCH  12  13
ATOM     13  C   UNL d   1      56.048  -0.146  32.843  0.00  0.00     0.041 A 
ATOM     14  C   UNL d   1      56.571  -0.160  32.207  0.00  0.00     0.101 A 
ATOM     15  C   UNL d   1      56.741  -0.879  31.843  0.00  0.00     0.025 A 
ATOM     16  C   UNL d   1      56.394  -1.578  32.109  0.00  0.00     0.002 A 
ATOM     17  C   UNL d   1      55.867  -1.558  32.750  0.00  0.00     0.000 A 
ATOM     18  C   UNL d   1      55.697  -0.839  33.115  0.00  0.00     0.004 A 
BRANCH  14  19
ATOM     19  O   UNL d   1      56.901   0.552  31.965  0.00  0.00    -0.307 OA
BRANCH  19  20
ATOM     20  C   UNL d   1      57.548   0.552  31.440  0.00  0.00     0.100 C 
ATOM     21  C   UNL d   1      57.425   0.681  30.633  0.00  0.00     0.027 C 
ATOM     22  C   UNL d   1      58.311   0.425  31.728  0.00  0.00     0.027 C 
ENDBRANCH  19  20
ENDBRANCH  14  19
ENDBRANCH  12  13
ENDBRANCH   1  12
TORSDOF 4
ENDMDL
MODEL 3
REMARK VINA RESULT:      -3.4      1.932      2.640
REMARK  4 active torsions:
REMARK  status: ('A' for Active; 'I' for Inactive)
REMARK    1  A    between atoms: C_5  and  N_1 
REMARK    2  A    between atoms: C_7  and  C_5 
REMARK    3  A    between atoms: O_11  and  C_8 
REMARK    4  A    between atoms: C_16  and  O_11 
ROOT
ATOM      1  N   UNL d   1      57.762  -0.676  30.100  0.00  0.00    -0.251 N 
ATOM      2  C   UNL d   1      57.692   0.015  29.634  0.00  0.00     0.378 A 
ATOM      3  C   UNL d   1      58.273  -1.195  29.718  0.00  0.00     0.092 A 
ATOM      4  O   UNL d   1      58.181  -0.151  28.991  0.00  0.00    -0.258 OA
ATOM      5  C   UNL d   1      58.524  -0.834  29.013  0.00  0.00     0.121 A 
ATOM      6  O   UNL d   1      57.232   0.682  29.812  0.00  0.00    -0.237 OA
ATOM      7  C   UNL d   1      58.542  -1.946  29.916  0.00  0.00     0.020 A 
ATOM      8  C   UNL d   1      59.051  -1.235  28.505  0.00  0.00     0.026 A 
ATOM      9  C   UNL d   1      59.070  -2.346  29.407  0.00  0.00     0.002 A 
ATOM     10  C   UNL d   1      59.328  -1.996  28.700  0.00  0.00     0.002 A 
ATOM     11  C   UNL d   1      59.342  -3.114  29.614  0.00  0.00     0.000 C 
ENDROOT
BRANCH   1  12
ATOM     12  C   UNL d   1      57.381  -0.801  30.815  0.00  0.00     0.087 C 
BRANCH  12  13
ATOM     13  C   UNL d   1      57.537  -0.316  31.463  0.00  0.00     0.041 A 
ATOM     14  C   UNL d   1      57.045  -0.350  32.122  0.00  0.00     0.101 A 
ATOM     15  C   UNL d   1      57.204   0.137  32.768  0.00  0.00     0.025 A 
ATOM     16  C   UNL d   1      57.847   0.652  32.758  0.00  0.00     0.002 A 
ATOM     17  C   UNL d   1      58.340   0.682  32.091  0.00  0.00     0.000 A 
ATOM     18  C   UNL d   1      58.181   0.196  31.445  0.00  0.00     0.004 A 
BRANCH  14  19
ATOM     19  O   UNL d   1      56.412  -0.873  32.103  0.00  0.00    -0.307 OA
BRANCH  19  20
ATOM     20  C   UNL d   1      55.908  -0.940  32.763  0.00  0.00     0.100 C 
ATOM     21  C   UNL d   1      55.415  -0.309  32.971  0.00  0.00     0.027 C 
ATOM     22  C   UNL d   1      55.901  -1.635  33.208  0.00  0.00     0.027 C 
ENDBRANCH  19  20
ENDBRANCH  14  19
ENDBRANCH  12  13
ENDBRANCH   1  12
TORSDOF 4
ENDMDL
MODEL 4
REMARK VINA RESULT:      -3.3      1.402      4.133
REMARK  4 active torsions:
REMARK  status: ('A' for Active; 'I' for Inactive)
REMARK    1  A    between atoms: C_5  and  N_1 
REMARK    2  A    between atoms: C_7  and  C_5 
REMARK    3  A    between atoms: O_11  and  C_8 
REMARK    4  A    between atoms: C_16  and  O_11 
ROOT
ATOM      1  N   UNL d   1      57.740  -0.240  31.785  0.00  0.00    -0.251 N 
ATOM      2  C   UNL d   1      58.197   0.403  32.061  0.00  0.00     0.378 A 
ATOM      3  C   UNL d   1      57.088  -0.326  32.279  0.00  0.00     0.092 A 
ATOM      4  O   UNL d   1      57.770   0.658  32.718  0.00  0.00    -0.258 OA
ATOM      5  C   UNL d   1      57.133   0.261  32.865  0.00  0.00     0.121 A 
ATOM      6  O   UNL d   1      58.903   0.682  31.726  0.00  0.00    -0.237 OA
ATOM      7  C   UNL d   1      56.460  -0.857  32.274  0.00  0.00     0.020 A 
ATOM      8  C   UNL d   1      56.540   0.311  33.451  0.00  0.00     0.026 A 
ATOM      9  C   UNL d   1      55.868  -0.806  32.861  0.00  0.00     0.002 A 
ATOM     10  C   UNL d   1      55.903  -0.224  33.451  0.00  0.00     0.002 A 
ATOM     11  C   UNL d   1      55.229  -1.352  32.852  0.00  0.00     0.000 C 
ENDROOT
BRANCH   1  12
ATOM     12  C   UNL d   1      57.921  -0.700  31.131  0.00  0.00     0.087 C 
BRANCH  12  13
ATOM     13  C   UNL d   1      57.928  -0.369  30.375  0.00  0.00     0.041 A 
ATOM     14  C   UNL d   1      58.315  -0.762  29.764  0.00  0.00     0.101 A 
ATOM     15  C   UNL d   1      58.320  -0.428  29.010  0.00  0.00     0.025 A 
ATOM     16  C   UNL d   1      57.942   0.290  28.867  0.00  0.00     0.002 A 
ATOM     17  C   UNL d   1      57.552   0.682  29.487  0.00  0.00     0.000 A 
ATOM     18  C   UNL d   1      57.548   0.348  30.241  0.00  0.00     0.004 A 
BRANCH  14  19
ATOM     19  O   UNL d   1      58.683  -1.476  29.937  0.00  0.00    -0.307 OA
BRANCH  19  20
ATOM     20  C   UNL d   1      59.126  -1.868  29.351  0.00  0.00     0.100 C 
ATOM     21  C   UNL d   1      58.848  -2.578  29.030  0.00  0.00     0.027 C 
ATOM     22  C   UNL d   1      59.841  -1.548  29.092  0.00  0.00     0.027 C 
ENDBRANCH  19  20
ENDBRANCH  14  19
ENDBRANCH  12  13
ENDBRANCH   1  12
TORSDOF 4
ENDMDL
MODEL 5
REMARK VINA RESULT:      -3.0      1.348      4.320
REMARK  4 active torsions:
REMARK  status: ('A' for Active; 'I' for Inactive)
REMARK    1  A    between atoms: C_5  and  N_1 
REMARK    2  A    between atoms: C_7  and  C_5 
REMARK    3  A    between atoms: O_11  and  C_8 
REMARK    4  A    between atoms: C_16  and  O_11 
ROOT
ATOM      1  N   UNL d   1      57.506  -0.656  31.470  0.00  0.00    -0.251 N 
ATOM      2  C   UNL d   1      57.216  -1.339  31.086  0.00  0.00     0.378 A 
ATOM      3  C   UNL d   1      57.037  -0.511  32.130  0.00  0.00     0.092 A 
ATOM      4  O   UNL d   1      56.578  -1.556  31.561  0.00  0.00    -0.258 OA
ATOM      5  C   UNL d   1      56.453  -1.102  32.163  0.00  0.00     0.121 A 
ATOM      6  O   UNL d   1      57.526  -1.682  30.396  0.00  0.00    -0.237 OA
ATOM      7  C   UNL d   1      57.062   0.076  32.705  0.00  0.00     0.020 A 
ATOM      8  C   UNL d   1      55.892  -1.098  32.780  0.00  0.00     0.026 A 
ATOM      9  C   UNL d   1      56.500   0.079  33.322  0.00  0.00     0.002 A 
ATOM     10  C   UNL d   1      55.912  -0.506  33.365  0.00  0.00     0.002 A 
ATOM     11  C   UNL d   1      56.530   0.682  33.906  0.00  0.00     0.000 C 
ENDROOT
BRANCH   1  12
ATOM     12  C   UNL d   1      58.149  -0.213  31.221  0.00  0.00     0.087 C 
BRANCH  12  13
ATOM     13  C   UNL d   1      58.180   0.086  30.452  0.00  0.00     0.041 A 
ATOM     14  C   UNL d   1      58.903   0.123  30.060  0.00  0.00     0.101 A 
ATOM     15  C   UNL d   1      58.929   0.422  29.293  0.00  0.00     0.025 A 
ATOM     16  C   UNL d   1      58.242   0.681  28.919  0.00  0.00     0.002 A 
ATOM     17  C   UNL d   1      57.516   0.642  29.320  0.00  0.00     0.000 A 
ATOM     18  C   UNL d   1      57.489   0.343  30.087  0.00  0.00     0.004 A 
BRANCH  14  19
ATOM     19  O   UNL d   1      59.571  -0.144  30.458  0.00  0.00    -0.307 OA
BRANCH  19  20
ATOM     20  C   UNL d   1      60.325  -0.038  30.121  0.00  0.00     0.100 C 
ATOM     21  C   UNL d   1      60.621  -0.597  29.589  0.00  0.00     0.027 C 
ATOM     22  C   UNL d   1      60.775   0.625  30.320  0.00  0.00     0.027 C 
ENDBRANCH  19  20
ENDBRANCH  14  19
ENDBRANCH  12  13
ENDBRANCH   1  12
TORSDOF 4
ENDMDL
MODEL 6
REMARK VINA RESULT:      -2.7      2.842      4.902
REMARK  4 active torsions:
REMARK  status: ('A' for Active; 'I' for Inactive)
REMARK    1  A    between atoms: C_5  and  N_1 
REMARK    2  A    between atoms: C_7  and  C_5 
REMARK    3  A    between atoms: O_11  and  C_8 
REMARK    4  A    between atoms: C_16  and  O_11 
ROOT
ATOM      1  N   UNL d   1      58.327  -0.612  29.521  0.00  0.00    -0.251 N 
ATOM      2  C   UNL d   1      58.558   0.124  29.199  0.00  0.00     0.378 A 
ATOM      3  C   UNL d   1      57.894  -0.471  30.206  0.00  0.00     0.092 A 
ATOM      4  O   UNL d   1      58.236   0.664  29.732  0.00  0.00    -0.258 OA
ATOM      5  C   UNL d   1      57.852   0.352  30.316  0.00  0.00     0.121 A 
ATOM      6  O   UNL d   1      59.004   0.238  28.508  0.00  0.00    -0.237 OA
ATOM      7  C   UNL d   1      57.533  -0.977  30.743  0.00  0.00     0.020 A 
ATOM      8  C   UNL d   1      57.442   0.664  30.973  0.00  0.00     0.026 A 
ATOM      9  C   UNL d   1      57.124  -0.664  31.400  0.00  0.00     0.002 A 
ATOM     10  C   UNL d   1      57.075   0.155  31.520  0.00  0.00     0.002 A 
ATOM     11  C   UNL d   1      56.757  -1.187  31.946  0.00  0.00     0.000 C 
ENDROOT
BRANCH   1  12
ATOM     12  C   UNL d   1      58.508  -1.344  29.199  0.00  0.00     0.087 C 
BRANCH  12  13
ATOM     13  C   UNL d   1      59.282  -1.630  29.218  0.00  0.00     0.041 A 
ATOM     14  C   UNL d   1      59.442  -2.383  28.925  0.00  0.00     0.101 A 
ATOM     15  C   UNL d   1      60.216  -2.665  28.946  0.00  0.00     0.025 A 
ATOM     16  C   UNL d   1      60.824  -2.203  29.255  0.00  0.00     0.002 A 
ATOM     17  C   UNL d   1      60.656  -1.444  29.549  0.00  0.00     0.000 A 
ATOM     18  C   UNL d   1      59.882  -1.162  29.528  0.00  0.00     0.004 A 
BRANCH  14  19
ATOM     19  O   UNL d   1      58.816  -2.820  28.623  0.00  0.00    -0.307 OA
BRANCH  19  20
ATOM     20  C   UNL d   1      58.898  -3.642  28.513  0.00  0.00     0.100 C 
ATOM     21  C   UNL d   1      58.225  -4.120  28.456  0.00  0.00     0.027 C 
ATOM     22  C   UNL d   1      59.650  -3.977  28.461  0.00  0.00     0.027 C 
ENDBRANCH  19  20
ENDBRANCH  14  19
ENDBRANCH  12  13
ENDBRANCH   1  12
TORSDOF 4
ENDMDL
