MODEL 1
REMARK VINA RESULT:      15.1      0.000      0.000
REMARK  1 active torsions:
REMARK  status: ('A' for Active; 'I' for Inactive)
REMARK       I    between atoms: C_2  and  N_1 
REMARK    1  A    between atoms: C_4  and  C_2 
ROOT
ATOM      1  N   UNL d   1      13.921  12.538  -2.210  0.00  0.00    -0.273 N 
ATOM      2  C   UNL d   1      13.971  12.846  -2.997  0.00  0.00     0.271 C 
ATOM      3  C   UNL d   1      14.326  12.795  -1.540  0.00  0.00     0.067 A 
ATOM      4  C   UNL d   1      13.437  11.899  -1.958  0.00  0.00     0.083 A 
ATOM      5  O   UNL d   1      14.485  13.484  -3.135  0.00  0.00    -0.266 OA
ATOM      6  C   UNL d   1      14.105  12.335  -0.894  0.00  0.00     0.018 A 
ATOM      7  C   UNL d   1      13.551  11.779  -1.164  0.00  0.00     0.021 A 
ATOM      8  C   UNL d   1      14.876  13.405  -1.459  0.00  0.00     0.018 A 
ATOM      9  C   UNL d   1      14.430  12.478  -0.160  0.00  0.00     0.002 A 
ATOM     10  C   UNL d   1      15.203  13.550  -0.722  0.00  0.00     0.002 A 
ATOM     11  C   UNL d   1      14.981  13.079  -0.048  0.00  0.00     0.000 A 
ENDROOT
BRANCH   2  12
ATOM     12  C   UNL d   1      13.515  12.513  -3.611  0.00  0.00     0.086 A 
ATOM     13  S   UNL d   1      13.148  11.785  -3.697  0.00  0.00    -0.082 SA
ATOM     14  C   UNL d   1      12.775  11.783  -4.437  0.00  0.00     0.036 A 
ATOM     15  C   UNL d   1      12.901  12.496  -4.814  0.00  0.00     0.008 A 
ATOM     16  C   UNL d   1      13.362  12.958  -4.306  0.00  0.00     0.012 A 
ENDBRANCH   2  12
TORSDOF 1
ENDMDL
MODEL 2
REMARK VINA RESULT:      17.2      1.125      3.230
REMARK  1 active torsions:
REMARK  status: ('A' for Active; 'I' for Inactive)
REMARK       I    between atoms: C_2  and  N_1 
REMARK    1  A    between atoms: C_4  and  C_2 
ROOT
ATOM      1  N   UNL d   1      13.757  12.612  -2.622  0.00  0.00    -0.273 N 
ATOM      2  C   UNL d   1      14.251  12.923  -2.009  0.00  0.00     0.271 C 
ATOM      3  C   UNL d   1      13.558  12.967  -3.338  0.00  0.00     0.067 A 
ATOM      4  C   UNL d   1      13.369  11.867  -2.615  0.00  0.00     0.083 A 
ATOM      5  O   UNL d   1      14.586  13.675  -2.119  0.00  0.00    -0.266 OA
ATOM      6  C   UNL d   1      13.064  12.464  -3.764  0.00  0.00     0.018 A 
ATOM      7  C   UNL d   1      12.952  11.781  -3.306  0.00  0.00     0.021 A 
ATOM      8  C   UNL d   1      13.780  13.701  -3.642  0.00  0.00     0.018 A 
ATOM      9  C   UNL d   1      12.787  12.688  -4.497  0.00  0.00     0.002 A 
ATOM     10  C   UNL d   1      13.502  13.927  -4.379  0.00  0.00     0.002 A 
ATOM     11  C   UNL d   1      12.991  13.414  -4.827  0.00  0.00     0.000 A 
ENDROOT
BRANCH   2  12
ATOM     12  C   UNL d   1      14.392  12.481  -1.315  0.00  0.00     0.086 A 
ATOM     13  S   UNL d   1      13.903  12.234  -0.705  0.00  0.00    -0.082 SA
ATOM     14  C   UNL d   1      14.372  11.810  -0.170  0.00  0.00     0.036 A 
ATOM     15  C   UNL d   1      15.144  11.786  -0.433  0.00  0.00     0.008 A 
ATOM     16  C   UNL d   1      15.166  12.203  -1.148  0.00  0.00     0.012 A 
ENDBRANCH   2  12
TORSDOF 1
ENDMDL
