MODEL 1
REMARK VINA RESULT:      32.9      0.000      0.000
REMARK  5 active torsions:
REMARK  status: ('A' for Active; 'I' for Inactive)
REMARK    1  A    between atoms: S_10  and  C_6 
REMARK    2  A    between atoms: C_14  and  S_10 
REMARK    3  A    between atoms: C_12  and  C_14 
REMARK    4  A    between atoms: O_16  and  C_12 
REMARK    5  A    between atoms: C_18  and  O_16 
ROOT
ATOM      1  C   UNL d   1     -51.700  25.869  33.320  0.00  0.00     0.117 A 
ATOM      2  C   UNL d   1     -51.268  25.179  33.318  0.00  0.00     0.082 A 
ATOM      3  N   UNL d   1     -51.301  26.611  33.324  0.00  0.00    -0.214 NA
ATOM      4  C   UNL d   1     -50.444  25.193  33.319  0.00  0.00     0.283 A 
ATOM      5  N   UNL d   1     -50.045  25.935  33.322  0.00  0.00    -0.183 NA
ATOM      6  C   UNL d   1     -50.486  26.630  33.325  0.00  0.00     0.198 A 
ATOM      7  S   UNL d   1     -52.530  25.685  33.319  0.00  0.00    -0.068 SA
ATOM      8  C   UNL d   1     -51.796  24.558  33.314  0.00  0.00     0.013 A 
ATOM      9  C   UNL d   1     -52.594  24.862  33.315  0.00  0.00     0.031 A 
ATOM     10  O   UNL d   1     -50.004  24.477  33.316  0.00  0.00    -0.265 OA
ATOM     11  C   UNL d   1     -51.684  23.741  33.311  0.00  0.00     0.001 A 
ATOM     12  C   UNL d   1     -53.247  24.351  33.312  0.00  0.00     0.006 A 
ATOM     13  C   UNL d   1     -52.337  23.231  33.307  0.00  0.00     0.000 A 
ATOM     14  C   UNL d   1     -53.124  23.555  33.308  0.00  0.00     0.001 A 
ENDROOT
BRANCH   6  15
ATOM     15  S   UNL d   1     -50.089  27.368  33.329  0.00  0.00    -0.042 SA
BRANCH  15  16
ATOM     16  C   UNL d   1     -49.487  27.497  33.862  0.00  0.00     0.107 C 
BRANCH  16  17
ATOM     17  C   UNL d   1     -49.353  28.279  34.159  0.00  0.00     0.307 C 
ATOM     18  O   UNL d   1     -49.606  28.936  33.734  0.00  0.00    -0.258 OA
BRANCH  17  19
ATOM     19  O   UNL d   1     -48.954  28.382  34.898  0.00  0.00    -0.271 OA
BRANCH  19  20
ATOM     20  C   UNL d   1     -48.238  28.798  34.922  0.00  0.00     0.126 C 
ATOM     21  C   UNL d   1     -47.881  28.981  35.641  0.00  0.00     0.029 C 
ENDBRANCH  19  20
ENDBRANCH  17  19
ENDBRANCH  16  17
ENDBRANCH  15  16
ENDBRANCH   6  15
TORSDOF 5
ENDMDL
