MODEL 1
REMARK VINA RESULT:      -3.0      0.000      0.000
REMARK  5 active torsions:
REMARK  status: ('A' for Active; 'I' for Inactive)
REMARK    1  A    between atoms: C_6  and  C_3 
REMARK    2  A    between atoms: C_7  and  C_6 
REMARK    3  A    between atoms: C_8  and  C_7 
REMARK    4  A    between atoms: O_16  and  C_10 
REMARK    5  A    between atoms: O_17  and  C_12 
ROOT
ATOM      1  C   UNL d   1      33.002  19.153 -23.388  0.00  0.00     0.198 C 
ATOM      2  O   UNL d   1      33.241  19.614 -24.032  0.00  0.00    -0.286 OA
ENDROOT
BRANCH   1   3
ATOM      3  C   UNL d   1      33.074  19.455 -22.617  0.00  0.00     0.067 C 
BRANCH   3   4
ATOM      4  C   UNL d   1      33.113  20.269 -22.499  0.00  0.00     0.107 A 
ATOM      5  O   UNL d   1      33.159  20.855 -23.091  0.00  0.00    -0.273 OA
ATOM      6  C   UNL d   1      33.189  21.587 -22.725  0.00  0.00     0.300 A 
ATOM      7  C   UNL d   1      33.161  21.465 -21.905  0.00  0.00     0.065 A 
ATOM      8  O   UNL d   1      33.237  22.322 -23.102  0.00  0.00    -0.259 OA
ATOM      9  C   UNL d   1      33.115  20.652 -21.770  0.00  0.00     0.028 A 
ATOM     10  C   UNL d   1      33.173  21.991 -21.270  0.00  0.00     0.005 A 
ATOM     11  C   UNL d   1      33.080  20.359 -20.992  0.00  0.00     0.002 A 
ATOM     12  C   UNL d   1      33.092  20.885 -20.358  0.00  0.00     0.000 A 
ATOM     13  C   UNL d   1      33.138  21.705 -20.499  0.00  0.00     0.000 A 
ENDBRANCH   3   4
ENDBRANCH   1   3
BRANCH   1  14
ATOM     14  C   UNL d   1      32.695  18.400 -23.504  0.00  0.00     0.041 A 
ATOM     15  C   UNL d   1      32.102  18.285 -24.062  0.00  0.00     0.029 A 
ATOM     16  C   UNL d   1      31.787  17.533 -24.187  0.00  0.00     0.116 A 
ATOM     17  C   UNL d   1      32.069  16.892 -23.747  0.00  0.00     0.116 A 
ATOM     18  C   UNL d   1      32.667  17.011 -23.185  0.00  0.00     0.026 A 
ATOM     19  C   UNL d   1      32.975  17.765 -23.069  0.00  0.00     0.005 A 
BRANCH  16  20
ATOM     20  O   UNL d   1      31.194  17.419 -24.745  0.00  0.00    -0.326 OA
ATOM     21  C   UNL d   1      30.677  18.040 -24.932  0.00  0.00     0.181 C 
ENDBRANCH  16  20
BRANCH  17  22
ATOM     22  O   UNL d   1      31.762  16.138 -23.864  0.00  0.00    -0.326 OA
ATOM     23  C   UNL d   1      32.140  15.476 -23.541  0.00  0.00     0.181 C 
ENDBRANCH  17  22
ENDBRANCH   1  14
TORSDOF 5
ENDMDL
MODEL 2
REMARK VINA RESULT:      -2.2      1.088      4.797
REMARK  5 active torsions:
REMARK  status: ('A' for Active; 'I' for Inactive)
REMARK    1  A    between atoms: C_6  and  C_3 
REMARK    2  A    between atoms: C_7  and  C_6 
REMARK    3  A    between atoms: C_8  and  C_7 
REMARK    4  A    between atoms: O_16  and  C_10 
REMARK    5  A    between atoms: O_17  and  C_12 
ROOT
ATOM      1  C   UNL d   1      33.135  19.383 -22.461  0.00  0.00     0.198 C 
ATOM      2  O   UNL d   1      33.239  18.929 -21.777  0.00  0.00    -0.286 OA
ENDROOT
BRANCH   1   3
ATOM      3  C   UNL d   1      33.008  19.005 -23.189  0.00  0.00     0.067 C 
BRANCH   3   4
ATOM      4  C   UNL d   1      32.862  18.196 -23.211  0.00  0.00     0.107 A 
ATOM      5  O   UNL d   1      33.241  17.611 -22.753  0.00  0.00    -0.273 OA
ATOM      6  C   UNL d   1      32.923  16.882 -22.954  0.00  0.00     0.300 A 
ATOM      7  C   UNL d   1      32.346  17.007 -23.537  0.00  0.00     0.065 A 
ATOM      8  O   UNL d   1      33.138  16.149 -22.635  0.00  0.00    -0.259 OA
ATOM      9  C   UNL d   1      32.311  17.817 -23.692  0.00  0.00     0.028 A 
ATOM     10  C   UNL d   1      31.853  16.484 -23.941  0.00  0.00     0.005 A 
ATOM     11  C   UNL d   1      31.777  18.110 -24.258  0.00  0.00     0.002 A 
ATOM     12  C   UNL d   1      31.284  17.588 -24.662  0.00  0.00     0.000 A 
ATOM     13  C   UNL d   1      31.323  16.772 -24.501  0.00  0.00     0.000 A 
ENDBRANCH   3   4
ENDBRANCH   1   3
BRANCH   1  14
ATOM     14  C   UNL d   1      33.158  20.204 -22.424  0.00  0.00     0.041 A 
ATOM     15  C   UNL d   1      33.119  20.578 -21.693  0.00  0.00     0.029 A 
ATOM     16  C   UNL d   1      33.140  21.401 -21.645  0.00  0.00     0.116 A 
ATOM     17  C   UNL d   1      33.202  21.851 -22.336  0.00  0.00     0.116 A 
ATOM     18  C   UNL d   1      33.241  21.470 -23.072  0.00  0.00     0.026 A 
ATOM     19  C   UNL d   1      33.219  20.648 -23.109  0.00  0.00     0.005 A 
BRANCH  16  20
ATOM     20  O   UNL d   1      33.101  21.776 -20.914  0.00  0.00    -0.326 OA
ATOM     21  C   UNL d   1      32.618  21.465 -20.316  0.00  0.00     0.181 C 
ENDBRANCH  16  20
BRANCH  17  22
ATOM     22  O   UNL d   1      33.224  22.672 -22.299  0.00  0.00    -0.326 OA
ATOM     23  C   UNL d   1      33.204  23.124 -22.993  0.00  0.00     0.181 C 
ENDBRANCH  17  22
ENDBRANCH   1  14
TORSDOF 5
ENDMDL
MODEL 3
REMARK VINA RESULT:      -2.1      2.020      5.310
REMARK  5 active torsions:
REMARK  status: ('A' for Active; 'I' for Inactive)
REMARK    1  A    between atoms: C_6  and  C_3 
REMARK    2  A    between atoms: C_7  and  C_6 
REMARK    3  A    between atoms: C_8  and  C_7 
REMARK    4  A    between atoms: O_16  and  C_10 
REMARK    5  A    between atoms: O_17  and  C_12 
ROOT
ATOM      1  C   UNL d   1      31.532  16.812 -24.094  0.00  0.00     0.198 C 
ATOM      2  O   UNL d   1      31.876  16.153 -23.730  0.00  0.00    -0.286 OA
ENDROOT
BRANCH   1   3
ATOM      3  C   UNL d   1      30.751  16.767 -24.371  0.00  0.00     0.067 C 
BRANCH   3   4
ATOM      4  C   UNL d   1      30.181  16.373 -23.928  0.00  0.00     0.107 A 
ATOM      5  O   UNL d   1      30.243  16.148 -23.127  0.00  0.00    -0.273 OA
ATOM      6  C   UNL d   1      29.548  15.771 -22.912  0.00  0.00     0.300 A 
ATOM      7  C   UNL d   1      29.049  15.757 -23.574  0.00  0.00     0.065 A 
ATOM      8  O   UNL d   1      29.371  15.457 -22.167  0.00  0.00    -0.259 OA
ATOM      9  C   UNL d   1      29.442  16.129 -24.198  0.00  0.00     0.028 A 
ATOM     10  C   UNL d   1      28.290  15.453 -23.684  0.00  0.00     0.005 A 
ATOM     11  C   UNL d   1      29.074  16.199 -24.940  0.00  0.00     0.002 A 
ATOM     12  C   UNL d   1      28.316  15.894 -25.050  0.00  0.00     0.000 A 
ATOM     13  C   UNL d   1      27.924  15.520 -24.418  0.00  0.00     0.000 A 
ENDBRANCH   3   4
ENDBRANCH   1   3
BRANCH   1  14
ATOM     14  C   UNL d   1      31.957  17.510 -24.182  0.00  0.00     0.041 A 
ATOM     15  C   UNL d   1      32.324  17.847 -23.527  0.00  0.00     0.029 A 
ATOM     16  C   UNL d   1      32.753  18.547 -23.604  0.00  0.00     0.116 A 
ATOM     17  C   UNL d   1      32.815  18.910 -24.344  0.00  0.00     0.116 A 
ATOM     18  C   UNL d   1      32.444  18.568 -25.003  0.00  0.00     0.026 A 
ATOM     19  C   UNL d   1      32.018  17.870 -24.915  0.00  0.00     0.005 A 
BRANCH  16  20
ATOM     20  O   UNL d   1      33.120  18.883 -22.950  0.00  0.00    -0.326 OA
ATOM     21  C   UNL d   1      32.661  19.246 -22.361  0.00  0.00     0.181 C 
ENDBRANCH  16  20
BRANCH  17  22
ATOM     22  O   UNL d   1      33.241  19.609 -24.432  0.00  0.00    -0.326 OA
ATOM     23  C   UNL d   1      33.034  20.155 -25.019  0.00  0.00     0.181 C 
ENDBRANCH  17  22
ENDBRANCH   1  14
TORSDOF 5
ENDMDL
MODEL 4
REMARK VINA RESULT:      -0.6      1.473      2.375
REMARK  5 active torsions:
REMARK  status: ('A' for Active; 'I' for Inactive)
REMARK    1  A    between atoms: C_6  and  C_3 
REMARK    2  A    between atoms: C_7  and  C_6 
REMARK    3  A    between atoms: C_8  and  C_7 
REMARK    4  A    between atoms: O_16  and  C_10 
REMARK    5  A    between atoms: O_17  and  C_12 
ROOT
ATOM      1  C   UNL d   1      33.126  20.165 -22.046  0.00  0.00     0.198 C 
ATOM      2  O   UNL d   1      33.187  19.899 -21.264  0.00  0.00    -0.286 OA
ENDROOT
BRANCH   1   3
ATOM      3  C   UNL d   1      33.183  20.977 -22.209  0.00  0.00     0.067 C 
BRANCH   3   4
ATOM      4  C   UNL d   1      33.023  21.526 -21.618  0.00  0.00     0.107 A 
ATOM      5  O   UNL d   1      33.236  21.465 -20.813  0.00  0.00    -0.273 OA
ATOM      6  C   UNL d   1      32.966  22.135 -20.425  0.00  0.00     0.300 A 
ATOM      7  C   UNL d   1      32.584  22.617 -20.982  0.00  0.00     0.065 A 
ATOM      8  O   UNL d   1      33.056  22.305 -19.620  0.00  0.00    -0.259 OA
ATOM      9  C   UNL d   1      32.622  22.238 -21.715  0.00  0.00     0.028 A 
ATOM     10  C   UNL d   1      32.210  23.348 -20.910  0.00  0.00     0.005 A 
ATOM     11  C   UNL d   1      32.282  22.594 -22.385  0.00  0.00     0.002 A 
ATOM     12  C   UNL d   1      31.908  23.325 -22.314  0.00  0.00     0.000 A 
ATOM     13  C   UNL d   1      31.873  23.702 -21.572  0.00  0.00     0.000 A 
ENDBRANCH   3   4
ENDBRANCH   1   3
BRANCH   1  14
ATOM     14  C   UNL d   1      33.009  19.632 -22.660  0.00  0.00     0.041 A 
ATOM     15  C   UNL d   1      32.965  18.827 -22.496  0.00  0.00     0.029 A 
ATOM     16  C   UNL d   1      32.848  18.283 -23.105  0.00  0.00     0.116 A 
ATOM     17  C   UNL d   1      32.775  18.550 -23.884  0.00  0.00     0.116 A 
ATOM     18  C   UNL d   1      32.819  19.362 -24.046  0.00  0.00     0.026 A 
ATOM     19  C   UNL d   1      32.936  19.896 -23.432  0.00  0.00     0.005 A 
BRANCH  16  20
ATOM     20  O   UNL d   1      32.804  17.479 -22.940  0.00  0.00    -0.326 OA
ATOM     21  C   UNL d   1      33.188  17.172 -22.272  0.00  0.00     0.181 C 
ENDBRANCH  16  20
BRANCH  17  22
ATOM     22  O   UNL d   1      32.657  18.016 -24.499  0.00  0.00    -0.326 OA
ATOM     23  C   UNL d   1      33.224  17.934 -25.097  0.00  0.00     0.181 C 
ENDBRANCH  17  22
ENDBRANCH   1  14
TORSDOF 5
ENDMDL
