MODEL 1
REMARK VINA RESULT:      -6.7      0.000      0.000
REMARK  4 active torsions:
REMARK  status: ('A' for Active; 'I' for Inactive)
REMARK    1  A    between atoms: C_5  and  N_1 
REMARK    2  A    between atoms: C_7  and  C_3 
REMARK    3  A    between atoms: C_8  and  C_4 
REMARK    4  A    between atoms: N_10  and  C_5 
ROOT
ATOM      1  N   UNL d   1     -48.558  12.775  22.780  0.00  0.00    -0.203 N 
ATOM      2  N   UNL d   1     -47.807  12.444  22.671  0.00  0.00    -0.163 NA
ATOM      3  C   UNL d   1     -47.256  13.029  22.601  0.00  0.00     0.103 A 
ATOM      4  C   UNL d   1     -48.479  13.606  22.780  0.00  0.00     0.087 A 
ATOM      5  C   UNL d   1     -47.675  13.770  22.669  0.00  0.00     0.040 A 
ENDROOT
BRANCH   3   6
ATOM      6  C   UNL d   1     -46.439  12.908  22.485  0.00  0.00     0.019 A 
ATOM      7  C   UNL d   1     -46.031  13.317  21.898  0.00  0.00     0.002 A 
ATOM      8  C   UNL d   1     -45.212  13.182  21.798  0.00  0.00     0.000 A 
ATOM      9  C   UNL d   1     -44.822  12.648  22.281  0.00  0.00     0.000 A 
ATOM     10  C   UNL d   1     -45.248  12.248  22.864  0.00  0.00     0.000 A 
ATOM     11  C   UNL d   1     -44.148  12.582  22.147  0.00  0.00     0.000 C 
ATOM     12  C   UNL d   1     -46.041  12.374  22.965  0.00  0.00     0.002 A 
ENDBRANCH   3   6
BRANCH   1  13
ATOM     13  C   UNL d   1     -49.282  12.354  22.876  0.00  0.00     0.222 C 
ATOM     14  S   UNL d   1     -49.756  12.192  22.193  0.00  0.00    -0.037 SA
BRANCH  13  15
ATOM     15  N   UNL d   1     -49.544  12.091  23.636  0.00  0.00    -0.214 NA
ATOM     16  C   UNL d   1     -50.045  11.429  23.698  0.00  0.00     0.122 C 
ENDBRANCH  13  15
ENDBRANCH   1  13
BRANCH   4  17
ATOM     17  C   UNL d   1     -49.066  14.182  22.869  0.00  0.00     0.018 A 
ATOM     18  C   UNL d   1     -49.267  14.469  23.610  0.00  0.00     0.002 A 
ATOM     19  C   UNL d   1     -49.851  15.042  23.698  0.00  0.00     0.011 A 
ATOM     20  C   UNL d   1     -50.238  15.332  23.033  0.00  0.00     0.058 A 
ATOM     21  C   UNL d   1     -50.051  15.059  22.302  0.00  0.00     0.011 A 
ATOM     22 CL   UNL d   1     -50.831  15.916  23.145  0.00  0.00    -0.082 Cl
ATOM     23  C   UNL d   1     -49.464  14.483  22.213  0.00  0.00     0.002 A 
ENDBRANCH   4  17
TORSDOF 4
ENDMDL
MODEL 2
REMARK VINA RESULT:      -6.1      1.154      1.624
REMARK  4 active torsions:
REMARK  status: ('A' for Active; 'I' for Inactive)
REMARK    1  A    between atoms: C_5  and  N_1 
REMARK    2  A    between atoms: C_7  and  C_3 
REMARK    3  A    between atoms: C_8  and  C_4 
REMARK    4  A    between atoms: N_10  and  C_5 
ROOT
ATOM      1  N   UNL d   1     -48.356  12.140  23.042  0.00  0.00    -0.203 N 
ATOM      2  N   UNL d   1     -47.794  11.548  23.179  0.00  0.00    -0.163 NA
ATOM      3  C   UNL d   1     -47.053  11.867  23.189  0.00  0.00     0.103 A 
ATOM      4  C   UNL d   1     -47.954  12.866  22.961  0.00  0.00     0.087 A 
ATOM      5  C   UNL d   1     -47.147  12.706  23.050  0.00  0.00     0.040 A 
ENDROOT
BRANCH   3   6
ATOM      6  C   UNL d   1     -46.347  11.442  23.312  0.00  0.00     0.019 A 
ATOM      7  C   UNL d   1     -45.614  11.790  23.173  0.00  0.00     0.002 A 
ATOM      8  C   UNL d   1     -44.918  11.347  23.302  0.00  0.00     0.000 A 
ATOM      9  C   UNL d   1     -44.967  10.573  23.564  0.00  0.00     0.000 A 
ATOM     10  C   UNL d   1     -45.710  10.240  23.698  0.00  0.00     0.000 A 
ATOM     11  C   UNL d   1     -44.356  10.262  23.651  0.00  0.00     0.000 C 
ATOM     12  C   UNL d   1     -46.388  10.665  23.574  0.00  0.00     0.002 A 
ENDBRANCH   3   6
BRANCH   1  13
ATOM     13  C   UNL d   1     -49.191  12.035  22.991  0.00  0.00     0.222 C 
ATOM     14  S   UNL d   1     -49.548  11.945  22.229  0.00  0.00    -0.037 SA
BRANCH  13  15
ATOM     15  N   UNL d   1     -49.678  12.019  23.684  0.00  0.00    -0.214 NA
ATOM     16  C   UNL d   1     -50.410  11.624  23.668  0.00  0.00     0.122 C 
ENDBRANCH  13  15
ENDBRANCH   1  13
BRANCH   4  17
ATOM     17  C   UNL d   1     -48.267  13.618  22.819  0.00  0.00     0.018 A 
ATOM     18  C   UNL d   1     -48.459  13.860  22.058  0.00  0.00     0.002 A 
ATOM     19  C   UNL d   1     -48.770  14.608  21.918  0.00  0.00     0.011 A 
ATOM     20  C   UNL d   1     -48.892  15.122  22.548  0.00  0.00     0.058 A 
ATOM     21  C   UNL d   1     -48.709  14.898  23.297  0.00  0.00     0.011 A 
ATOM     22 CL   UNL d   1     -49.211  15.881  22.384  0.00  0.00    -0.082 Cl
ATOM     23  C   UNL d   1     -48.396  14.146  23.440  0.00  0.00     0.002 A 
ENDBRANCH   4  17
TORSDOF 4
ENDMDL
MODEL 3
REMARK VINA RESULT:      -6.0      9.308      9.824
REMARK  4 active torsions:
REMARK  status: ('A' for Active; 'I' for Inactive)
REMARK    1  A    between atoms: C_5  and  N_1 
REMARK    2  A    between atoms: C_7  and  C_3 
REMARK    3  A    between atoms: C_8  and  C_4 
REMARK    4  A    between atoms: N_10  and  C_5 
ROOT
ATOM      1  N   UNL d   1     -38.881  14.070  18.939  0.00  0.00    -0.203 N 
ATOM      2  N   UNL d   1     -38.602  13.929  19.706  0.00  0.00    -0.163 NA
ATOM      3  C   UNL d   1     -39.039  14.346  20.240  0.00  0.00     0.103 A 
ATOM      4  C   UNL d   1     -39.525  14.599  18.990  0.00  0.00     0.087 A 
ATOM      5  C   UNL d   1     -39.628  14.774  19.793  0.00  0.00     0.040 A 
ENDROOT
BRANCH   3   6
ATOM      6  C   UNL d   1     -38.921  14.343  21.065  0.00  0.00     0.019 A 
ATOM      7  C   UNL d   1     -38.607  15.000  21.449  0.00  0.00     0.002 A 
ATOM      8  C   UNL d   1     -38.496  14.978  22.277  0.00  0.00     0.000 A 
ATOM      9  C   UNL d   1     -38.699  14.308  22.700  0.00  0.00     0.000 A 
ATOM     10  C   UNL d   1     -39.013  13.659  22.299  0.00  0.00     0.000 A 
ATOM     11  C   UNL d   1     -38.583  14.353  23.379  0.00  0.00     0.000 C 
ATOM     12  C   UNL d   1     -39.122  13.675  21.497  0.00  0.00     0.002 A 
ENDBRANCH   3   6
BRANCH   1  13
ATOM     13  C   UNL d   1     -38.576  13.740  18.226  0.00  0.00     0.222 C 
ATOM     14  S   UNL d   1     -37.968  14.157  17.809  0.00  0.00    -0.037 SA
BRANCH  13  15
ATOM     15  N   UNL d   1     -38.863  13.006  17.920  0.00  0.00    -0.214 NA
ATOM     16  C   UNL d   1     -38.359  12.516  17.474  0.00  0.00     0.122 C 
ENDBRANCH  13  15
ENDBRANCH   1  13
BRANCH   4  17
ATOM     17  C   UNL d   1     -39.990  14.908  18.381  0.00  0.00     0.018 A 
ATOM     18  C   UNL d   1     -40.671  14.525  18.132  0.00  0.00     0.002 A 
ATOM     19  C   UNL d   1     -41.133  14.834  17.526  0.00  0.00     0.011 A 
ATOM     20  C   UNL d   1     -40.910  15.537  17.163  0.00  0.00     0.058 A 
ATOM     21  C   UNL d   1     -40.245  15.922  17.397  0.00  0.00     0.011 A 
ATOM     22 CL   UNL d   1     -41.395  15.835  16.546  0.00  0.00    -0.082 Cl
ATOM     23  C   UNL d   1     -39.780  15.613  18.006  0.00  0.00     0.002 A 
ENDBRANCH   4  17
TORSDOF 4
ENDMDL
MODEL 4
REMARK VINA RESULT:      -5.8      7.822      9.682
REMARK  4 active torsions:
REMARK  status: ('A' for Active; 'I' for Inactive)
REMARK    1  A    between atoms: C_5  and  N_1 
REMARK    2  A    between atoms: C_7  and  C_3 
REMARK    3  A    between atoms: C_8  and  C_4 
REMARK    4  A    between atoms: N_10  and  C_5 
ROOT
ATOM      1  N   UNL d   1     -40.068  14.559  20.048  0.00  0.00    -0.203 N 
ATOM      2  N   UNL d   1     -40.029  14.480  19.225  0.00  0.00    -0.163 NA
ATOM      3  C   UNL d   1     -39.298  14.220  19.006  0.00  0.00     0.103 A 
ATOM      4  C   UNL d   1     -39.328  14.339  20.365  0.00  0.00     0.087 A 
ATOM      5  C   UNL d   1     -38.846  14.128  19.726  0.00  0.00     0.040 A 
ENDROOT
BRANCH   3   6
ATOM      6  C   UNL d   1     -39.053  14.076  18.223  0.00  0.00     0.019 A 
ATOM      7  C   UNL d   1     -38.885  14.699  17.711  0.00  0.00     0.002 A 
ATOM      8  C   UNL d   1     -38.640  14.533  16.929  0.00  0.00     0.000 A 
ATOM      9  C   UNL d   1     -38.570  13.758  16.677  0.00  0.00     0.000 A 
ATOM     10  C   UNL d   1     -38.742  13.146  17.203  0.00  0.00     0.000 A 
ATOM     11  C   UNL d   1     -38.364  13.689  16.021  0.00  0.00     0.000 C 
ATOM     12  C   UNL d   1     -38.979  13.301  17.962  0.00  0.00     0.002 A 
ENDBRANCH   3   6
BRANCH   1  13
ATOM     13  C   UNL d   1     -40.734  14.816  20.496  0.00  0.00     0.222 C 
ATOM     14  S   UNL d   1     -41.289  14.239  20.773  0.00  0.00    -0.037 SA
BRANCH  13  15
ATOM     15  N   UNL d   1     -40.859  15.633  20.674  0.00  0.00    -0.214 NA
ATOM     16  C   UNL d   1     -41.632  15.921  20.784  0.00  0.00     0.122 C 
ENDBRANCH  13  15
ENDBRANCH   1  13
BRANCH   4  17
ATOM     17  C   UNL d   1     -39.087  14.324  21.156  0.00  0.00     0.018 A 
ATOM     18  C   UNL d   1     -39.216  13.662  21.624  0.00  0.00     0.002 A 
ATOM     19  C   UNL d   1     -38.976  13.648  22.411  0.00  0.00     0.011 A 
ATOM     20  C   UNL d   1     -38.603  14.305  22.734  0.00  0.00     0.058 A 
ATOM     21  C   UNL d   1     -38.472  14.959  22.287  0.00  0.00     0.011 A 
ATOM     22 CL   UNL d   1     -38.367  14.270  23.539  0.00  0.00    -0.082 Cl
ATOM     23  C   UNL d   1     -38.712  14.975  21.496  0.00  0.00     0.002 A 
ENDBRANCH   4  17
TORSDOF 4
ENDMDL
MODEL 5
REMARK VINA RESULT:      -5.0      1.435      2.145
REMARK  4 active torsions:
REMARK  status: ('A' for Active; 'I' for Inactive)
REMARK    1  A    between atoms: C_5  and  N_1 
REMARK    2  A    between atoms: C_7  and  C_3 
REMARK    3  A    between atoms: C_8  and  C_4 
REMARK    4  A    between atoms: N_10  and  C_5 
ROOT
ATOM      1  N   UNL d   1     -47.924  13.756  22.436  0.00  0.00    -0.203 N 
ATOM      2  N   UNL d   1     -47.108  13.811  22.309  0.00  0.00    -0.163 NA
ATOM      3  C   UNL d   1     -46.768  13.083  22.387  0.00  0.00     0.103 A 
ATOM      4  C   UNL d   1     -48.109  12.959  22.601  0.00  0.00     0.087 A 
ATOM      5  C   UNL d   1     -47.398  12.537  22.572  0.00  0.00     0.040 A 
ENDROOT
BRANCH   3   6
ATOM      6  C   UNL d   1     -45.955  12.921  22.298  0.00  0.00     0.019 A 
ATOM      7  C   UNL d   1     -45.476  13.402  21.831  0.00  0.00     0.002 A 
ATOM      8  C   UNL d   1     -44.664  13.222  21.755  0.00  0.00     0.000 A 
ATOM      9  C   UNL d   1     -44.349  12.573  22.142  0.00  0.00     0.000 A 
ATOM     10  C   UNL d   1     -44.844  12.103  22.606  0.00  0.00     0.000 A 
ATOM     11  C   UNL d   1     -43.673  12.479  22.039  0.00  0.00     0.000 C 
ATOM     12  C   UNL d   1     -45.632  12.272  22.683  0.00  0.00     0.002 A 
ENDBRANCH   3   6
BRANCH   1  13
ATOM     13  C   UNL d   1     -48.480  14.390  22.406  0.00  0.00     0.222 C 
ATOM     14  S   UNL d   1     -48.888  14.543  21.680  0.00  0.00    -0.037 SA
BRANCH  13  15
ATOM     15  N   UNL d   1     -48.636  14.873  23.082  0.00  0.00    -0.214 NA
ATOM     16  C   UNL d   1     -49.038  15.596  22.992  0.00  0.00     0.122 C 
ENDBRANCH  13  15
ENDBRANCH   1  13
BRANCH   4  17
ATOM     17  C   UNL d   1     -48.846  12.622  22.765  0.00  0.00     0.018 A 
ATOM     18  C   UNL d   1     -49.121  12.562  23.536  0.00  0.00     0.002 A 
ATOM     19  C   UNL d   1     -49.855  12.226  23.698  0.00  0.00     0.011 A 
ATOM     20  C   UNL d   1     -50.319  11.947  23.080  0.00  0.00     0.058 A 
ATOM     21  C   UNL d   1     -50.062  12.000  22.321  0.00  0.00     0.011 A 
ATOM     22 CL   UNL d   1     -51.064  11.608  23.267  0.00  0.00    -0.082 Cl
ATOM     23  C   UNL d   1     -49.325  12.337  22.157  0.00  0.00     0.002 A 
ENDBRANCH   4  17
TORSDOF 4
ENDMDL
MODEL 6
REMARK VINA RESULT:      -4.9      9.056     10.427
REMARK  4 active torsions:
REMARK  status: ('A' for Active; 'I' for Inactive)
REMARK    1  A    between atoms: C_5  and  N_1 
REMARK    2  A    between atoms: C_7  and  C_3 
REMARK    3  A    between atoms: C_8  and  C_4 
REMARK    4  A    between atoms: N_10  and  C_5 
ROOT
ATOM      1  N   UNL d   1     -39.559  14.742  18.754  0.00  0.00    -0.203 N 
ATOM      2  N   UNL d   1     -39.595  14.797  19.579  0.00  0.00    -0.163 NA
ATOM      3  C   UNL d   1     -39.035  14.321  19.912  0.00  0.00     0.103 A 
ATOM      4  C   UNL d   1     -38.950  14.208  18.555  0.00  0.00     0.087 A 
ATOM      5  C   UNL d   1     -38.621  13.943  19.267  0.00  0.00     0.040 A 
ENDROOT
BRANCH   3   6
ATOM      6  C   UNL d   1     -38.904  14.232  20.730  0.00  0.00     0.019 A 
ATOM      7  C   UNL d   1     -39.426  13.798  21.196  0.00  0.00     0.002 A 
ATOM      8  C   UNL d   1     -39.277  13.720  22.015  0.00  0.00     0.000 A 
ATOM      9  C   UNL d   1     -38.618  14.073  22.348  0.00  0.00     0.000 A 
ATOM     10  C   UNL d   1     -38.106  14.504  21.865  0.00  0.00     0.000 A 
ATOM     11  C   UNL d   1     -38.552  13.971  23.028  0.00  0.00     0.000 C 
ATOM     12  C   UNL d   1     -38.245  14.583  21.071  0.00  0.00     0.002 A 
ENDBRANCH   3   6
BRANCH   1  13
ATOM     13  C   UNL d   1     -40.049  15.151  18.203  0.00  0.00     0.222 C 
ATOM     14  S   UNL d   1     -39.814  15.920  17.938  0.00  0.00    -0.037 SA
BRANCH  13  15
ATOM     15  N   UNL d   1     -40.766  14.811  17.911  0.00  0.00    -0.214 NA
ATOM     16  C   UNL d   1     -41.472  15.251  17.926  0.00  0.00     0.122 C 
ENDBRANCH  13  15
ENDBRANCH   1  13
BRANCH   4  17
ATOM     17  C   UNL d   1     -38.697  13.967  17.805  0.00  0.00     0.018 A 
ATOM     18  C   UNL d   1     -38.941  13.251  17.487  0.00  0.00     0.002 A 
ATOM     19  C   UNL d   1     -38.689  13.012  16.741  0.00  0.00     0.011 A 
ATOM     20  C   UNL d   1     -38.185  13.497  16.308  0.00  0.00     0.058 A 
ATOM     21  C   UNL d   1     -37.940  14.200  16.608  0.00  0.00     0.011 A 
ATOM     22 CL   UNL d   1     -37.940  13.235  15.549  0.00  0.00    -0.082 Cl
ATOM     23  C   UNL d   1     -38.192  14.441  17.358  0.00  0.00     0.002 A 
ENDBRANCH   4  17
TORSDOF 4
ENDMDL
MODEL 7
REMARK VINA RESULT:      -4.7      0.944      1.355
REMARK  4 active torsions:
REMARK  status: ('A' for Active; 'I' for Inactive)
REMARK    1  A    between atoms: C_5  and  N_1 
REMARK    2  A    between atoms: C_7  and  C_3 
REMARK    3  A    between atoms: C_8  and  C_4 
REMARK    4  A    between atoms: N_10  and  C_5 
ROOT
ATOM      1  N   UNL d   1     -47.452  12.593  22.668  0.00  0.00    -0.203 N 
ATOM      2  N   UNL d   1     -46.691  12.285  22.562  0.00  0.00    -0.163 NA
ATOM      3  C   UNL d   1     -46.176  12.879  22.380  0.00  0.00     0.103 A 
ATOM      4  C   UNL d   1     -47.417  13.419  22.548  0.00  0.00     0.087 A 
ATOM      5  C   UNL d   1     -46.630  13.602  22.370  0.00  0.00     0.040 A 
ENDROOT
BRANCH   3   6
ATOM      6  C   UNL d   1     -45.361  12.780  22.235  0.00  0.00     0.019 A 
ATOM      7  C   UNL d   1     -44.938  12.173  22.596  0.00  0.00     0.002 A 
ATOM      8  C   UNL d   1     -44.121  12.091  22.437  0.00  0.00     0.000 A 
ATOM      9  C   UNL d   1     -43.748  12.612  21.928  0.00  0.00     0.000 A 
ATOM     10  C   UNL d   1     -44.188  13.214  21.576  0.00  0.00     0.000 A 
ATOM     11  C   UNL d   1     -43.074  12.490  21.839  0.00  0.00     0.000 C 
ATOM     12  C   UNL d   1     -44.979  13.298  21.726  0.00  0.00     0.002 A 
ENDBRANCH   3   6
BRANCH   1  13
ATOM     13  C   UNL d   1     -48.147  12.157  22.863  0.00  0.00     0.222 C 
ATOM     14  S   UNL d   1     -48.378  12.095  23.675  0.00  0.00    -0.037 SA
BRANCH  13  15
ATOM     15  N   UNL d   1     -48.615  11.782  22.266  0.00  0.00    -0.214 NA
ATOM     16  C   UNL d   1     -49.050  11.096  22.449  0.00  0.00     0.122 C 
ENDBRANCH  13  15
ENDBRANCH   1  13
BRANCH   4  17
ATOM     17  C   UNL d   1     -48.028  13.974  22.591  0.00  0.00     0.018 A 
ATOM     18  C   UNL d   1     -48.302  14.247  23.314  0.00  0.00     0.002 A 
ATOM     19  C   UNL d   1     -48.910  14.800  23.355  0.00  0.00     0.011 A 
ATOM     20  C   UNL d   1     -49.249  15.083  22.662  0.00  0.00     0.058 A 
ATOM     21  C   UNL d   1     -48.990  14.824  21.948  0.00  0.00     0.011 A 
ATOM     22 CL   UNL d   1     -49.868  15.647  22.726  0.00  0.00    -0.082 Cl
ATOM     23  C   UNL d   1     -48.379  14.268  21.905  0.00  0.00     0.002 A 
ENDBRANCH   4  17
TORSDOF 4
ENDMDL
