MODEL 1
REMARK VINA RESULT:      -4.7      0.000      0.000
REMARK  2 active torsions:
REMARK  status: ('A' for Active; 'I' for Inactive)
REMARK    1  A    between atoms: C_7  and  C_1 
REMARK    2  A    between atoms: C_8  and  C_7 
ROOT
ATOM      1  C   UNL d   1     -41.613-122.485 -51.557  0.00  0.00     0.116 A 
ATOM      2  N   UNL d   1     -42.596-122.061 -50.594  0.00  0.00    -0.152 NA
ATOM      3  N   UNL d   1     -42.104-123.421 -50.601  0.00  0.00    -0.152 NA
ATOM      4  C   UNL d   1     -42.112-121.886 -51.226  0.00  0.00     0.288 A 
ATOM      5  C   UNL d   1     -41.611-123.243 -51.245  0.00  0.00     0.288 A 
ATOM      6  C   UNL d   1     -42.603-122.821 -50.270  0.00  0.00     0.374 A 
ATOM      7  O   UNL d   1     -42.107-121.129 -51.546  0.00  0.00    -0.265 OA
ATOM      8  O   UNL d   1     -41.133-123.817 -51.562  0.00  0.00    -0.265 OA
ATOM      9  O   UNL d   1     -43.105-123.001 -49.615  0.00  0.00    -0.242 OA
ENDROOT
BRANCH   1  10
ATOM     10  C   UNL d   1     -41.123-122.311 -52.197  0.00  0.00     0.016 C 
BRANCH  10  11
ATOM     11  C   UNL d   1     -41.483-122.520 -53.286  0.00  0.00     0.030 A 
ATOM     12  S   UNL d   1     -41.776-121.962 -53.825  0.00  0.00    -0.080 SA
ATOM     13  C   UNL d   1     -41.962-122.363 -54.528  0.00  0.00     0.064 A 
ATOM     14 BR   UNL d   1     -42.274-122.003 -55.213  0.00  0.00    -0.042 Br
ATOM     15  C   UNL d   1     -41.792-123.150 -54.433  0.00  0.00     0.014 A 
ATOM     16  C   UNL d   1     -41.490-123.254 -53.654  0.00  0.00     0.007 A 
ENDBRANCH  10  11
ENDBRANCH   1  10
TORSDOF 2
ENDMDL
