MODEL 1
REMARK VINA RESULT:      20.2      0.000      0.000
REMARK  5 active torsions:
REMARK  status: ('A' for Active; 'I' for Inactive)
REMARK    1  A    between atoms: N_2  and  C_1 
REMARK    2  A    between atoms: N_3  and  C_1 
REMARK       I    between atoms: C_4  and  N_2 
REMARK    3  A    between atoms: C_15  and  C_4 
REMARK    4  A    between atoms: O_17  and  C_9 
REMARK    5  A    between atoms: O_18  and  C_10 
ROOT
ATOM      1  N   UNL d   1      45.863 -16.463  44.310  0.00  0.00    -0.281 N 
ATOM      2  C   UNL d   1      45.813 -15.033  44.185  0.00  0.00     0.020 A 
ATOM      3  C   UNL d   1      46.232 -15.742  44.142  0.00  0.00     0.082 A 
ATOM      4  C   UNL d   1      45.008 -15.047  44.400  0.00  0.00     0.005 A 
ATOM      5  C   UNL d   1      46.174 -14.312  44.019  0.00  0.00     0.028 A 
ATOM      6  C   UNL d   1      45.747 -13.610  44.065  0.00  0.00     0.116 A 
ATOM      7  C   UNL d   1      44.950 -13.624  44.278  0.00  0.00     0.116 A 
ATOM      8  C   UNL d   1      44.581 -14.340  44.445  0.00  0.00     0.026 A 
ATOM      9  C   UNL d   1      45.055 -16.478  44.526  0.00  0.00     0.082 A 
ATOM     10  C   UNL d   1      44.627 -15.763  44.570  0.00  0.00     0.019 A 
ENDROOT
BRANCH   1  11
ATOM     11  C   UNL d   1      46.290 -17.173  44.265  0.00  0.00     0.209 C 
ATOM     12  S   UNL d   1      46.630 -17.490  44.946  0.00  0.00    -0.038 SA
BRANCH  11  13
ATOM     13  N   UNL d   1      46.373 -17.558  43.540  0.00  0.00    -0.180 NA
ATOM     14  C   UNL d   1      46.392 -18.383  43.514  0.00  0.00     0.281 C 
ATOM     15  O   UNL d   1      46.327 -18.819  44.211  0.00  0.00    -0.265 OA
BRANCH  14  16
ATOM     16  C   UNL d   1      46.476 -18.767  42.785  0.00  0.00     0.058 A 
ATOM     17  C   UNL d   1      46.520 -19.588  42.764  0.00  0.00     0.005 A 
ATOM     18  C   UNL d   1      46.603 -19.975  42.043  0.00  0.00     0.000 A 
ATOM     19  C   UNL d   1      46.641 -19.537  41.344  0.00  0.00     0.000 A 
ATOM     20  C   UNL d   1      46.596 -18.709  41.371  0.00  0.00     0.000 A 
ATOM     21  C   UNL d   1      46.512 -18.326  42.099  0.00  0.00     0.005 A 
ENDBRANCH  14  16
ENDBRANCH  11  13
ENDBRANCH   1  11
BRANCH   6  22
ATOM     22  O   UNL d   1      46.116 -12.894  43.897  0.00  0.00    -0.326 OA
ATOM     23  C   UNL d   1      46.537 -12.499  44.486  0.00  0.00     0.181 C 
ENDBRANCH   6  22
BRANCH   7  24
ATOM     24  O   UNL d   1      44.523 -12.915  44.323  0.00  0.00    -0.326 OA
ATOM     25  C   UNL d   1      44.131 -12.626  43.660  0.00  0.00     0.181 C 
ENDBRANCH   7  24
TORSDOF 5
ENDMDL
