MODEL 1
REMARK VINA RESULT:      -8.4      0.000      0.000
REMARK  1 active torsions:
REMARK  status: ('A' for Active; 'I' for Inactive)
REMARK    1  A    between atoms: C_15  and  C_6 
ROOT
ATOM      1  C   UNL d   1     -48.407  12.589  22.973  0.00  0.00     0.087 A 
ATOM      2  C   UNL d   1     -49.067  13.817  22.641  0.00  0.00     0.111 A 
ATOM      3  C   UNL d   1     -47.710  13.007  23.124  0.00  0.00     0.109 A 
ATOM      4  C   UNL d   1     -48.433  11.769  23.061  0.00  0.00     0.302 A 
ATOM      5  C   UNL d   1     -48.362  14.230  22.795  0.00  0.00     0.213 A 
ATOM      6  C   UNL d   1     -49.090  12.984  22.732  0.00  0.00     0.020 A 
ATOM      7  O   UNL d   1     -47.692  13.822  23.034  0.00  0.00    -0.287 OA
ATOM      8  C   UNL d   1     -47.035  12.607  23.364  0.00  0.00     0.050 A 
ATOM      9  O   UNL d   1     -47.745  11.363  23.306  0.00  0.00    -0.273 OA
ATOM     10  C   UNL d   1     -49.746  14.216  22.401  0.00  0.00     0.105 C 
ATOM     11  C   UNL d   1     -47.051  11.778  23.456  0.00  0.00     0.105 A 
ATOM     12  N   UNL d   1     -50.424  14.627  22.159  0.00  0.00    -0.191 NA
ATOM     13  O   UNL d   1     -49.130  11.352  22.911  0.00  0.00    -0.259 OA
ATOM     14  N   UNL d   1     -48.348  15.053  22.703  0.00  0.00    -0.120 N 
ATOM     15  C   UNL d   1     -46.371  11.371  23.697  0.00  0.00     0.027 C 
ENDROOT
BRANCH   6  16
ATOM     16  C   UNL d   1     -49.777  12.573  22.583  0.00  0.00     0.001 C 
ATOM     17  C   UNL d   1     -50.317  12.425  23.190  0.00  0.00     0.000 C 
ATOM     18  C   UNL d   1     -49.937  12.301  21.826  0.00  0.00     0.000 C 
ENDBRANCH   6  16
TORSDOF 1
ENDMDL
MODEL 2
REMARK VINA RESULT:      -8.3      1.671      2.946
REMARK  1 active torsions:
REMARK  status: ('A' for Active; 'I' for Inactive)
REMARK    1  A    between atoms: C_15  and  C_6 
ROOT
ATOM      1  C   UNL d   1     -48.504  12.685  23.108  0.00  0.00     0.087 A 
ATOM      2  C   UNL d   1     -47.081  12.518  23.109  0.00  0.00     0.111 A 
ATOM      3  C   UNL d   1     -48.587  11.962  23.501  0.00  0.00     0.109 A 
ATOM      4  C   UNL d   1     -49.167  13.134  22.910  0.00  0.00     0.302 A 
ATOM      5  C   UNL d   1     -47.172  11.792  23.503  0.00  0.00     0.213 A 
ATOM      6  C   UNL d   1     -47.757  12.971  22.908  0.00  0.00     0.020 A 
ATOM      7  O   UNL d   1     -47.923  11.522  23.695  0.00  0.00    -0.287 OA
ATOM      8  C   UNL d   1     -49.333  11.684  23.697  0.00  0.00     0.050 A 
ATOM      9  O   UNL d   1     -49.928  12.849  23.110  0.00  0.00    -0.273 OA
ATOM     10  C   UNL d   1     -46.333  12.799  22.911  0.00  0.00     0.105 C 
ATOM     11  C   UNL d   1     -50.010  12.131  23.500  0.00  0.00     0.105 A 
ATOM     12  N   UNL d   1     -45.575  13.073  22.716  0.00  0.00    -0.191 NA
ATOM     13  O   UNL d   1     -49.085  13.856  22.517  0.00  0.00    -0.259 OA
ATOM     14  N   UNL d   1     -46.499  11.351  23.697  0.00  0.00    -0.120 N 
ATOM     15  C   UNL d   1     -50.765  11.853  23.697  0.00  0.00     0.027 C 
ENDROOT
BRANCH   6  16
ATOM     16  C   UNL d   1     -47.675  13.683  22.521  0.00  0.00     0.001 C 
ATOM     17  C   UNL d   1     -47.568  14.382  22.947  0.00  0.00     0.000 C 
ATOM     18  C   UNL d   1     -47.699  13.711  21.702  0.00  0.00     0.000 C 
ENDBRANCH   6  16
TORSDOF 1
ENDMDL
MODEL 3
REMARK VINA RESULT:      -8.2      1.497      2.806
REMARK  1 active torsions:
REMARK  status: ('A' for Active; 'I' for Inactive)
REMARK    1  A    between atoms: C_15  and  C_6 
ROOT
ATOM      1  C   UNL d   1     -48.536  13.519  22.846  0.00  0.00     0.087 A 
ATOM      2  C   UNL d   1     -47.139  13.235  22.988  0.00  0.00     0.111 A 
ATOM      3  C   UNL d   1     -48.366  14.327  22.810  0.00  0.00     0.109 A 
ATOM      4  C   UNL d   1     -49.315  13.251  22.794  0.00  0.00     0.302 A 
ATOM      5  C   UNL d   1     -46.975  14.049  22.951  0.00  0.00     0.213 A 
ATOM      6  C   UNL d   1     -47.931  12.966  22.935  0.00  0.00     0.020 A 
ATOM      7  O   UNL d   1     -47.589  14.586  22.863  0.00  0.00    -0.287 OA
ATOM      8  C   UNL d   1     -48.973  14.872  22.722  0.00  0.00     0.050 A 
ATOM      9  O   UNL d   1     -49.933  13.807  22.704  0.00  0.00    -0.273 OA
ATOM     10  C   UNL d   1     -46.532  12.686  23.077  0.00  0.00     0.105 C 
ATOM     11  C   UNL d   1     -49.763  14.611  22.668  0.00  0.00     0.105 A 
ATOM     12  N   UNL d   1     -45.912  12.142  23.166  0.00  0.00    -0.191 NA
ATOM     13  O   UNL d   1     -49.485  12.444  22.830  0.00  0.00    -0.259 OA
ATOM     14  N   UNL d   1     -46.190  14.306  23.005  0.00  0.00    -0.120 N 
ATOM     15  C   UNL d   1     -50.379  15.158  22.579  0.00  0.00     0.027 C 
ENDROOT
BRANCH   6  16
ATOM     16  C   UNL d   1     -48.099  12.170  22.970  0.00  0.00     0.001 C 
ATOM     17  C   UNL d   1     -48.216  11.798  23.698  0.00  0.00     0.000 C 
ATOM     18  C   UNL d   1     -48.152  11.730  22.280  0.00  0.00     0.000 C 
ENDBRANCH   6  16
TORSDOF 1
ENDMDL
MODEL 4
REMARK VINA RESULT:      -8.2      1.661      3.466
REMARK  1 active torsions:
REMARK  status: ('A' for Active; 'I' for Inactive)
REMARK    1  A    between atoms: C_15  and  C_6 
ROOT
ATOM      1  C   UNL d   1     -47.918  13.431  22.849  0.00  0.00     0.087 A 
ATOM      2  C   UNL d   1     -47.267  12.245  23.321  0.00  0.00     0.111 A 
ATOM      3  C   UNL d   1     -48.653  13.063  22.944  0.00  0.00     0.109 A 
ATOM      4  C   UNL d   1     -47.870  14.205  22.567  0.00  0.00     0.302 A 
ATOM      5  C   UNL d   1     -48.009  11.882  23.414  0.00  0.00     0.213 A 
ATOM      6  C   UNL d   1     -47.221  13.031  23.034  0.00  0.00     0.020 A 
ATOM      7  O   UNL d   1     -48.694  12.294  23.225  0.00  0.00    -0.287 OA
ATOM      8  C   UNL d   1     -49.342  13.467  22.758  0.00  0.00     0.050 A 
ATOM      9  O   UNL d   1     -48.573  14.616  22.377  0.00  0.00    -0.273 OA
ATOM     10  C   UNL d   1     -46.574  11.842  23.507  0.00  0.00     0.105 C 
ATOM     11  C   UNL d   1     -49.303  14.250  22.472  0.00  0.00     0.105 A 
ATOM     12  N   UNL d   1     -45.882  11.427  23.698  0.00  0.00    -0.191 NA
ATOM     13  O   UNL d   1     -47.136  14.572  22.472  0.00  0.00    -0.259 OA
ATOM     14  N   UNL d   1     -48.046  11.105  23.698  0.00  0.00    -0.120 N 
ATOM     15  C   UNL d   1     -49.997  14.661  22.283  0.00  0.00     0.027 C 
ENDROOT
BRANCH   6  16
ATOM     16  C   UNL d   1     -46.498  13.393  22.941  0.00  0.00     0.001 C 
ATOM     17  C   UNL d   1     -46.070  13.301  22.241  0.00  0.00     0.000 C 
ATOM     18  C   UNL d   1     -46.188  13.855  23.544  0.00  0.00     0.000 C 
ENDBRANCH   6  16
TORSDOF 1
ENDMDL
MODEL 5
REMARK VINA RESULT:      -8.1      1.130      1.922
REMARK  1 active torsions:
REMARK  status: ('A' for Active; 'I' for Inactive)
REMARK    1  A    between atoms: C_15  and  C_6 
ROOT
ATOM      1  C   UNL d   1     -48.196  12.439  23.007  0.00  0.00     0.087 A 
ATOM      2  C   UNL d   1     -49.628  12.480  23.007  0.00  0.00     0.111 A 
ATOM      3  C   UNL d   1     -48.218  11.753  23.468  0.00  0.00     0.109 A 
ATOM      4  C   UNL d   1     -47.475  12.765  22.774  0.00  0.00     0.302 A 
ATOM      5  C   UNL d   1     -49.642  11.790  23.470  0.00  0.00     0.213 A 
ATOM      6  C   UNL d   1     -48.894  12.810  22.772  0.00  0.00     0.020 A 
ATOM      7  O   UNL d   1     -48.938  11.434  23.696  0.00  0.00    -0.287 OA
ATOM      8  C   UNL d   1     -47.519  11.389  23.698  0.00  0.00     0.050 A 
ATOM      9  O   UNL d   1     -46.763  12.394  23.009  0.00  0.00    -0.273 OA
ATOM     10  C   UNL d   1     -50.328  12.847  22.774  0.00  0.00     0.105 C 
ATOM     11  C   UNL d   1     -46.785  11.712  23.467  0.00  0.00     0.105 A 
ATOM     12  N   UNL d   1     -51.038  13.208  22.546  0.00  0.00    -0.191 NA
ATOM     13  O   UNL d   1     -47.453  13.451  22.314  0.00  0.00    -0.259 OA
ATOM     14  N   UNL d   1     -50.372  11.472  23.698  0.00  0.00    -0.120 N 
ATOM     15  C   UNL d   1     -46.078  11.348  23.698  0.00  0.00     0.027 C 
ENDROOT
BRANCH   6  16
ATOM     16  C   UNL d   1     -48.872  13.485  22.318  0.00  0.00     0.001 C 
ATOM     17  C   UNL d   1     -48.838  14.229  22.674  0.00  0.00     0.000 C 
ATOM     18  C   UNL d   1     -48.884  13.431  21.499  0.00  0.00     0.000 C 
ENDBRANCH   6  16
TORSDOF 1
ENDMDL
