MODEL 1
REMARK VINA RESULT:      -6.1      0.000      0.000
REMARK  4 active torsions:
REMARK  status: ('A' for Active; 'I' for Inactive)
REMARK    1  A    between atoms: N_3  and  C_1 
REMARK    2  A    between atoms: C_4  and  C_2 
REMARK       I    between atoms: C_6  and  N_3 
REMARK    3  A    between atoms: C_11  and  C_6 
REMARK    4  A    between atoms: C_13  and  C_11 
ROOT
ATOM      1  N   UNL d   1     -41.507-123.266 -52.067  0.00  0.00    -0.201 NA
ATOM      2  C   UNL d   1     -41.568-123.146 -52.874  0.00  0.00     0.280 C 
ATOM      3  O   UNL d   1     -41.662-123.801 -53.379  0.00  0.00    -0.265 OA
ENDROOT
BRANCH   2   4
ATOM      4  C   UNL d   1     -41.538-122.394 -53.196  0.00  0.00     0.062 C 
BRANCH   4   5
ATOM      5  C   UNL d   1     -41.750-122.263 -53.980  0.00  0.00     0.005 A 
ATOM      6  C   UNL d   1     -41.268-122.543 -54.594  0.00  0.00     0.003 A 
ATOM      7  C   UNL d   1     -41.487-122.408 -55.379  0.00  0.00     0.030 A 
ATOM      8  C   UNL d   1     -42.180-121.998 -55.556  0.00  0.00     0.140 A 
ATOM      9  C   UNL d   1     -42.653-121.724 -54.948  0.00  0.00     0.030 A 
ATOM     10  F   UNL d   1     -42.385-121.872 -56.338  0.00  0.00    -0.204 F 
ATOM     11  C   UNL d   1     -42.449-121.850 -54.159  0.00  0.00     0.003 A 
ENDBRANCH   4   5
ENDBRANCH   2   4
BRANCH   1  12
ATOM     12  C   UNL d   1     -41.414-122.615 -51.570  0.00  0.00     0.119 A 
ATOM     13  C   UNL d   1     -41.600-122.597 -50.771  0.00  0.00     0.084 A 
ATOM     14  C   UNL d   1     -41.421-121.842 -50.488  0.00  0.00     0.014 A 
ATOM     15  C   UNL d   1     -41.123-121.394 -51.122  0.00  0.00     0.037 A 
ATOM     16  S   UNL d   1     -41.124-121.883 -51.783  0.00  0.00    -0.067 SA
BRANCH  13  17
ATOM     17  C   UNL d   1     -41.910-123.217 -50.323  0.00  0.00     0.299 C 
ATOM     18  O   UNL d   1     -42.712-123.245 -50.149  0.00  0.00    -0.264 OA
ATOM     19  N   UNL d   1     -41.404-123.814 -50.048  0.00  0.00    -0.102 N 
ENDBRANCH  13  17
ENDBRANCH   1  12
TORSDOF 4
ENDMDL
MODEL 2
REMARK VINA RESULT:      -6.0      2.344      4.156
REMARK  4 active torsions:
REMARK  status: ('A' for Active; 'I' for Inactive)
REMARK    1  A    between atoms: N_3  and  C_1 
REMARK    2  A    between atoms: C_4  and  C_2 
REMARK       I    between atoms: C_6  and  N_3 
REMARK    3  A    between atoms: C_11  and  C_6 
REMARK    4  A    between atoms: C_13  and  C_11 
ROOT
ATOM      1  N   UNL d   1     -41.335-121.865 -53.318  0.00  0.00    -0.201 NA
ATOM      2  C   UNL d   1     -41.305-121.920 -52.502  0.00  0.00     0.280 C 
ATOM      3  O   UNL d   1     -41.205-121.230 -52.048  0.00  0.00    -0.265 OA
ENDROOT
BRANCH   2   4
ATOM      4  C   UNL d   1     -41.371-122.642 -52.121  0.00  0.00     0.062 C 
BRANCH   4   5
ATOM      5  C   UNL d   1     -41.564-122.680 -51.322  0.00  0.00     0.005 A 
ATOM      6  C   UNL d   1     -41.138-123.179 -50.814  0.00  0.00     0.003 A 
ATOM      7  C   UNL d   1     -41.337-123.213 -50.014  0.00  0.00     0.030 A 
ATOM      8  C   UNL d   1     -41.954-122.755 -49.715  0.00  0.00     0.140 A 
ATOM      9  C   UNL d   1     -42.371-122.264 -50.218  0.00  0.00     0.030 A 
ATOM     10  F   UNL d   1     -42.140-122.799 -48.920  0.00  0.00    -0.204 F 
ATOM     11  C   UNL d   1     -42.186-122.218 -51.021  0.00  0.00     0.003 A 
ENDBRANCH   4   5
ENDBRANCH   2   4
BRANCH   1  12
ATOM     12  C   UNL d   1     -41.433-122.551 -53.763  0.00  0.00     0.119 A 
ATOM     13  C   UNL d   1     -41.859-122.607 -54.462  0.00  0.00     0.084 A 
ATOM     14  C   UNL d   1     -41.816-123.389 -54.722  0.00  0.00     0.014 A 
ATOM     15  C   UNL d   1     -41.357-123.816 -54.175  0.00  0.00     0.037 A 
ATOM     16  S   UNL d   1     -41.127-123.288 -53.589  0.00  0.00    -0.067 SA
BRANCH  13  17
ATOM     17  C   UNL d   1     -42.263-121.996 -54.843  0.00  0.00     0.299 C 
ATOM     18  O   UNL d   1     -43.075-121.911 -54.750  0.00  0.00    -0.264 OA
ATOM     19  N   UNL d   1     -41.842-121.466 -55.321  0.00  0.00    -0.102 N 
ENDBRANCH  13  17
ENDBRANCH   1  12
TORSDOF 4
ENDMDL
MODEL 3
REMARK VINA RESULT:      -4.4      1.386      1.836
REMARK  4 active torsions:
REMARK  status: ('A' for Active; 'I' for Inactive)
REMARK    1  A    between atoms: N_3  and  C_1 
REMARK    2  A    between atoms: C_4  and  C_2 
REMARK       I    between atoms: C_6  and  N_3 
REMARK    3  A    between atoms: C_11  and  C_6 
REMARK    4  A    between atoms: C_13  and  C_11 
ROOT
ATOM      1  N   UNL d   1     -42.204-122.273 -50.914  0.00  0.00    -0.201 NA
ATOM      2  C   UNL d   1     -41.980-122.258 -51.701  0.00  0.00     0.280 C 
ATOM      3  O   UNL d   1     -42.265-121.654 -52.197  0.00  0.00    -0.265 OA
ENDROOT
BRANCH   2   4
ATOM      4  C   UNL d   1     -41.479-122.827 -52.012  0.00  0.00     0.062 C 
BRANCH   4   5
ATOM      5  C   UNL d   1     -41.390-122.910 -52.825  0.00  0.00     0.005 A 
ATOM      6  C   UNL d   1     -41.444-123.659 -53.176  0.00  0.00     0.003 A 
ATOM      7  C   UNL d   1     -41.354-123.735 -53.994  0.00  0.00     0.030 A 
ATOM      8  C   UNL d   1     -41.210-123.073 -54.463  0.00  0.00     0.140 A 
ATOM      9  C   UNL d   1     -41.157-122.336 -54.114  0.00  0.00     0.030 A 
ATOM     10  F   UNL d   1     -41.123-123.163 -55.271  0.00  0.00    -0.204 F 
ATOM     11  C   UNL d   1     -41.245-122.241 -53.299  0.00  0.00     0.003 A 
ENDBRANCH   4   5
ENDBRANCH   2   4
BRANCH   1  12
ATOM     12  C   UNL d   1     -41.918-122.873 -50.427  0.00  0.00     0.119 A 
ATOM     13  C   UNL d   1     -42.333-123.223 -49.811  0.00  0.00     0.084 A 
ATOM     14  C   UNL d   1     -41.845-123.795 -49.470  0.00  0.00     0.014 A 
ATOM     15  C   UNL d   1     -41.123-123.794 -49.883  0.00  0.00     0.037 A 
ATOM     16  S   UNL d   1     -41.181-123.221 -50.470  0.00  0.00    -0.067 SA
BRANCH  13  17
ATOM     17  C   UNL d   1     -43.102-123.042 -49.569  0.00  0.00     0.299 C 
ATOM     18  O   UNL d   1     -43.744-123.441 -49.891  0.00  0.00    -0.264 OA
ATOM     19  N   UNL d   1     -43.221-122.453 -48.998  0.00  0.00    -0.102 N 
ENDBRANCH  13  17
ENDBRANCH   1  12
TORSDOF 4
ENDMDL
