MODEL 1
REMARK VINA RESULT:      -5.3      0.000      0.000
REMARK  1 active torsions:
REMARK  status: ('A' for Active; 'I' for Inactive)
REMARK    1  A    between atoms: N_3  and  C_2 
ROOT
ATOM      1  N   UNL d   1      56.473   0.413  32.538  0.00  0.00    -0.228 NA
ATOM      2  C   UNL d   1      56.060  -0.129  33.008  0.00  0.00     0.148 A 
ATOM      3  C   UNL d   1      56.917   0.143  31.891  0.00  0.00     0.083 A 
ATOM      4  C   UNL d   1      56.092  -0.935  32.830  0.00  0.00     0.037 A 
ATOM      5  C   UNL d   1      56.944  -0.664  31.720  0.00  0.00     0.018 A 
ATOM      6  C   UNL d   1      56.531  -1.207  32.190  0.00  0.00     0.005 A 
ATOM      7  C   UNL d   1      57.330   0.682  31.422  0.00  0.00     0.019 A 
ATOM      8  C   UNL d   1      57.383  -0.937  31.080  0.00  0.00     0.002 A 
ATOM      9  C   UNL d   1      57.770   0.409  30.780  0.00  0.00     0.002 A 
ATOM     10  C   UNL d   1      57.796  -0.402  30.609  0.00  0.00     0.000 A 
ENDROOT
BRANCH   2  11
ATOM     11  N   UNL d   1      55.619   0.142  33.651  0.00  0.00    -0.286 N 
ATOM     12  C   UNL d   1      55.992   0.298  34.370  0.00  0.00     0.102 A 
ATOM     13  C   UNL d   1      55.552   0.567  35.010  0.00  0.00     0.118 A 
ATOM     14  N   UNL d   1      54.741   0.681  34.933  0.00  0.00    -0.239 NA
ATOM     15  C   UNL d   1      54.367   0.525  34.214  0.00  0.00     0.118 A 
ATOM     16  C   UNL d   1      54.808   0.254  33.571  0.00  0.00     0.102 A 
ENDBRANCH   2  11
TORSDOF 1
ENDMDL
MODEL 2
REMARK VINA RESULT:      -5.3      1.720      4.068
REMARK  1 active torsions:
REMARK  status: ('A' for Active; 'I' for Inactive)
REMARK    1  A    between atoms: N_3  and  C_2 
ROOT
ATOM      1  N   UNL d   1      57.106  -0.563  31.241  0.00  0.00    -0.228 NA
ATOM      2  C   UNL d   1      57.604   0.066  31.041  0.00  0.00     0.148 A 
ATOM      3  C   UNL d   1      56.732  -0.573  31.982  0.00  0.00     0.083 A 
ATOM      4  C   UNL d   1      57.726   0.681  31.578  0.00  0.00     0.037 A 
ATOM      5  C   UNL d   1      56.859   0.045  32.513  0.00  0.00     0.018 A 
ATOM      6  C   UNL d   1      57.357   0.676  32.314  0.00  0.00     0.005 A 
ATOM      7  C   UNL d   1      56.235  -1.200  32.183  0.00  0.00     0.019 A 
ATOM      8  C   UNL d   1      56.490   0.040  33.249  0.00  0.00     0.002 A 
ATOM      9  C   UNL d   1      55.865  -1.206  32.919  0.00  0.00     0.002 A 
ATOM     10  C   UNL d   1      55.993  -0.584  33.453  0.00  0.00     0.000 A 
ENDROOT
BRANCH   2  11
ATOM     11  N   UNL d   1      57.976   0.074  30.303  0.00  0.00    -0.286 N 
ATOM     12  C   UNL d   1      57.808   0.675  29.764  0.00  0.00     0.102 A 
ATOM     13  C   UNL d   1      58.178   0.682  29.030  0.00  0.00     0.118 A 
ATOM     14  N   UNL d   1      58.716   0.090  28.834  0.00  0.00    -0.239 NA
ATOM     15  C   UNL d   1      58.884  -0.511  29.374  0.00  0.00     0.118 A 
ATOM     16  C   UNL d   1      58.513  -0.519  30.111  0.00  0.00     0.102 A 
ENDBRANCH   2  11
TORSDOF 1
ENDMDL
MODEL 3
REMARK VINA RESULT:      -5.1      1.218      3.640
REMARK  1 active torsions:
REMARK  status: ('A' for Active; 'I' for Inactive)
REMARK    1  A    between atoms: N_3  and  C_2 
ROOT
ATOM      1  N   UNL d   1      56.904   0.420  32.200  0.00  0.00    -0.228 NA
ATOM      2  C   UNL d   1      57.222  -0.106  31.645  0.00  0.00     0.148 A 
ATOM      3  C   UNL d   1      56.320   0.158  32.728  0.00  0.00     0.083 A 
ATOM      4  C   UNL d   1      56.957  -0.887  31.621  0.00  0.00     0.037 A 
ATOM      5  C   UNL d   1      56.060  -0.625  32.697  0.00  0.00     0.018 A 
ATOM      6  C   UNL d   1      56.378  -1.151  32.143  0.00  0.00     0.005 A 
ATOM      7  C   UNL d   1      56.002   0.681  33.282  0.00  0.00     0.019 A 
ATOM      8  C   UNL d   1      55.482  -0.889  33.219  0.00  0.00     0.002 A 
ATOM      9  C   UNL d   1      55.422   0.416  33.805  0.00  0.00     0.002 A 
ATOM     10  C   UNL d   1      55.162  -0.370  33.773  0.00  0.00     0.000 A 
ENDROOT
BRANCH   2  11
ATOM     11  N   UNL d   1      57.803   0.157  31.120  0.00  0.00    -0.286 N 
ATOM     12  C   UNL d   1      57.645   0.182  30.311  0.00  0.00     0.102 A 
ATOM     13  C   UNL d   1      58.224   0.444  29.789  0.00  0.00     0.118 A 
ATOM     14  N   UNL d   1      58.959   0.680  30.074  0.00  0.00    -0.239 NA
ATOM     15  C   UNL d   1      59.117   0.655  30.884  0.00  0.00     0.118 A 
ATOM     16  C   UNL d   1      58.536   0.392  31.409  0.00  0.00     0.102 A 
ENDBRANCH   2  11
TORSDOF 1
ENDMDL
MODEL 4
REMARK VINA RESULT:      -4.4      1.078      2.248
REMARK  1 active torsions:
REMARK  status: ('A' for Active; 'I' for Inactive)
REMARK    1  A    between atoms: N_3  and  C_2 
ROOT
ATOM      1  N   UNL d   1      57.379  -0.859  31.020  0.00  0.00    -0.228 NA
ATOM      2  C   UNL d   1      57.090  -0.212  31.448  0.00  0.00     0.148 A 
ATOM      3  C   UNL d   1      57.909  -0.736  30.393  0.00  0.00     0.083 A 
ATOM      4  C   UNL d   1      57.329   0.552  31.249  0.00  0.00     0.037 A 
ATOM      5  C   UNL d   1      58.143   0.032  30.201  0.00  0.00     0.018 A 
ATOM      6  C   UNL d   1      57.854   0.680  30.628  0.00  0.00     0.005 A 
ATOM      7  C   UNL d   1      58.198  -1.379  29.966  0.00  0.00     0.019 A 
ATOM      8  C   UNL d   1      58.668   0.160  29.580  0.00  0.00     0.002 A 
ATOM      9  C   UNL d   1      58.724  -1.252  29.344  0.00  0.00     0.002 A 
ATOM     10  C   UNL d   1      58.959  -0.481  29.151  0.00  0.00     0.000 A 
ENDROOT
BRANCH   2  11
ATOM     11  N   UNL d   1      56.563  -0.338  32.071  0.00  0.00    -0.286 N 
ATOM     12  C   UNL d   1      56.380  -1.107  32.307  0.00  0.00     0.102 A 
ATOM     13  C   UNL d   1      55.856  -1.231  32.927  0.00  0.00     0.118 A 
ATOM     14  N   UNL d   1      55.514  -0.589  33.313  0.00  0.00    -0.239 NA
ATOM     15  C   UNL d   1      55.697   0.180  33.078  0.00  0.00     0.118 A 
ATOM     16  C   UNL d   1      56.224   0.306  32.454  0.00  0.00     0.102 A 
ENDBRANCH   2  11
TORSDOF 1
ENDMDL
MODEL 5
REMARK VINA RESULT:      -2.9      9.227     10.251
REMARK  1 active torsions:
REMARK  status: ('A' for Active; 'I' for Inactive)
REMARK    1  A    between atoms: N_3  and  C_2 
ROOT
ATOM      1  N   UNL d   1      59.316  -8.723  34.170  0.00  0.00    -0.228 NA
ATOM      2  C   UNL d   1      59.575  -9.350  33.695  0.00  0.00     0.148 A 
ATOM      3  C   UNL d   1      59.701  -8.564  34.888  0.00  0.00     0.083 A 
ATOM      4  C   UNL d   1      60.214  -9.813  33.938  0.00  0.00     0.037 A 
ATOM      5  C   UNL d   1      60.338  -9.032  35.124  0.00  0.00     0.018 A 
ATOM      6  C   UNL d   1      60.598  -9.659  34.650  0.00  0.00     0.005 A 
ATOM      7  C   UNL d   1      59.444  -7.940  35.363  0.00  0.00     0.019 A 
ATOM      8  C   UNL d   1      60.723  -8.878  35.835  0.00  0.00     0.002 A 
ATOM      9  C   UNL d   1      59.829  -7.786  36.075  0.00  0.00     0.002 A 
ATOM     10  C   UNL d   1      60.469  -8.256  36.312  0.00  0.00     0.000 A 
ENDROOT
BRANCH   2  11
ATOM     11  N   UNL d   1      59.191  -9.506  32.981  0.00  0.00    -0.286 N 
ATOM     12  C   UNL d   1      59.633  -9.640  32.297  0.00  0.00     0.102 A 
ATOM     13  C   UNL d   1      59.250  -9.795  31.587  0.00  0.00     0.118 A 
ATOM     14  N   UNL d   1      58.427  -9.818  31.558  0.00  0.00    -0.239 NA
ATOM     15  C   UNL d   1      57.986  -9.685  32.242  0.00  0.00     0.118 A 
ATOM     16  C   UNL d   1      58.370  -9.528  32.957  0.00  0.00     0.102 A 
ENDBRANCH   2  11
TORSDOF 1
ENDMDL
MODEL 6
REMARK VINA RESULT:      -2.9      1.963      3.379
REMARK  1 active torsions:
REMARK  status: ('A' for Active; 'I' for Inactive)
REMARK    1  A    between atoms: N_3  and  C_2 
ROOT
ATOM      1  N   UNL d   1      58.835   0.189  30.613  0.00  0.00    -0.228 NA
ATOM      2  C   UNL d   1      58.025   0.159  30.446  0.00  0.00     0.148 A 
ATOM      3  C   UNL d   1      59.378   0.319  29.999  0.00  0.00     0.083 A 
ATOM      4  C   UNL d   1      57.761   0.259  29.671  0.00  0.00     0.037 A 
ATOM      5  C   UNL d   1      59.105   0.418  29.226  0.00  0.00     0.018 A 
ATOM      6  C   UNL d   1      58.295   0.388  29.058  0.00  0.00     0.005 A 
ATOM      7  C   UNL d   1      60.186   0.349  30.163  0.00  0.00     0.019 A 
ATOM      8  C   UNL d   1      59.639   0.547  28.613  0.00  0.00     0.002 A 
ATOM      9  C   UNL d   1      60.721   0.479  29.550  0.00  0.00     0.002 A 
ATOM     10  C   UNL d   1      60.447   0.578  28.774  0.00  0.00     0.000 A 
ENDROOT
BRANCH   2  11
ATOM     11  N   UNL d   1      57.487   0.029  31.060  0.00  0.00    -0.286 N 
ATOM     12  C   UNL d   1      57.249  -0.739  31.243  0.00  0.00     0.102 A 
ATOM     13  C   UNL d   1      56.713  -0.867  31.853  0.00  0.00     0.118 A 
ATOM     14  N   UNL d   1      56.415  -0.230  32.280  0.00  0.00    -0.239 NA
ATOM     15  C   UNL d   1      56.653   0.539  32.097  0.00  0.00     0.118 A 
ATOM     16  C   UNL d   1      57.191   0.668  31.484  0.00  0.00     0.102 A 
ENDBRANCH   2  11
TORSDOF 1
ENDMDL
MODEL 7
REMARK VINA RESULT:      -2.8      2.373      4.701
REMARK  1 active torsions:
REMARK  status: ('A' for Active; 'I' for Inactive)
REMARK    1  A    between atoms: N_3  and  C_2 
ROOT
ATOM      1  N   UNL d   1      58.617   0.490  30.994  0.00  0.00    -0.228 NA
ATOM      2  C   UNL d   1      58.694   0.111  30.262  0.00  0.00     0.148 A 
ATOM      3  C   UNL d   1      57.978   0.302  31.490  0.00  0.00     0.083 A 
ATOM      4  C   UNL d   1      58.137  -0.451  30.030  0.00  0.00     0.037 A 
ATOM      5  C   UNL d   1      57.426  -0.262  31.251  0.00  0.00     0.018 A 
ATOM      6  C   UNL d   1      57.502  -0.642  30.519  0.00  0.00     0.005 A 
ATOM      7  C   UNL d   1      57.900   0.678  32.220  0.00  0.00     0.019 A 
ATOM      8  C   UNL d   1      56.791  -0.452  31.739  0.00  0.00     0.002 A 
ATOM      9  C   UNL d   1      57.265   0.488  32.710  0.00  0.00     0.002 A 
ATOM     10  C   UNL d   1      56.709  -0.078  32.469  0.00  0.00     0.000 A 
ENDROOT
BRANCH   2  11
ATOM     11  N   UNL d   1      59.330   0.300  29.770  0.00  0.00    -0.286 N 
ATOM     12  C   UNL d   1      59.195   0.489  28.979  0.00  0.00     0.102 A 
ATOM     13  C   UNL d   1      59.829   0.677  28.490  0.00  0.00     0.118 A 
ATOM     14  N   UNL d   1      60.595   0.676  28.790  0.00  0.00    -0.239 NA
ATOM     15  C   UNL d   1      60.730   0.487  29.581  0.00  0.00     0.118 A 
ATOM     16  C   UNL d   1      60.094   0.298  30.074  0.00  0.00     0.102 A 
ENDBRANCH   2  11
TORSDOF 1
ENDMDL
MODEL 8
REMARK VINA RESULT:      -2.8      3.539      5.647
REMARK  1 active torsions:
REMARK  status: ('A' for Active; 'I' for Inactive)
REMARK    1  A    between atoms: N_3  and  C_2 
ROOT
ATOM      1  N   UNL d   1      58.556  -1.665  29.672  0.00  0.00    -0.228 NA
ATOM      2  C   UNL d   1      59.049  -1.828  29.027  0.00  0.00     0.148 A 
ATOM      3  C   UNL d   1      58.350  -0.880  29.845  0.00  0.00     0.083 A 
ATOM      4  C   UNL d   1      59.333  -1.210  28.561  0.00  0.00     0.037 A 
ATOM      5  C   UNL d   1      58.639  -0.267  29.373  0.00  0.00     0.018 A 
ATOM      6  C   UNL d   1      59.132  -0.430  28.728  0.00  0.00     0.005 A 
ATOM      7  C   UNL d   1      57.859  -0.715  30.488  0.00  0.00     0.019 A 
ATOM      8  C   UNL d   1      58.438   0.513  29.541  0.00  0.00     0.002 A 
ATOM      9  C   UNL d   1      57.658   0.066  30.656  0.00  0.00     0.002 A 
ATOM     10  C   UNL d   1      57.948   0.681  30.182  0.00  0.00     0.000 A 
ENDROOT
BRANCH   2  11
ATOM     11  N   UNL d   1      59.252  -2.611  28.857  0.00  0.00    -0.286 N 
ATOM     12  C   UNL d   1      60.039  -2.852  28.909  0.00  0.00     0.102 A 
ATOM     13  C   UNL d   1      60.240  -3.631  28.739  0.00  0.00     0.118 A 
ATOM     14  N   UNL d   1      59.657  -4.168  28.518  0.00  0.00    -0.239 NA
ATOM     15  C   UNL d   1      58.870  -3.927  28.466  0.00  0.00     0.118 A 
ATOM     16  C   UNL d   1      58.667  -3.144  28.637  0.00  0.00     0.102 A 
ENDBRANCH   2  11
TORSDOF 1
ENDMDL
MODEL 9
REMARK VINA RESULT:      -2.4     10.044     10.297
REMARK  1 active torsions:
REMARK  status: ('A' for Active; 'I' for Inactive)
REMARK    1  A    between atoms: N_3  and  C_2 
ROOT
ATOM      1  N   UNL d   1      58.814  -9.641  33.452  0.00  0.00    -0.228 NA
ATOM      2  C   UNL d   1      59.603  -9.595  33.697  0.00  0.00     0.148 A 
ATOM      3  C   UNL d   1      58.636  -9.700  32.643  0.00  0.00     0.083 A 
ATOM      4  C   UNL d   1      60.209  -9.609  33.137  0.00  0.00     0.037 A 
ATOM      5  C   UNL d   1      59.248  -9.713  32.089  0.00  0.00     0.018 A 
ATOM      6  C   UNL d   1      60.038  -9.667  32.334  0.00  0.00     0.005 A 
ATOM      7  C   UNL d   1      57.850  -9.746  32.397  0.00  0.00     0.019 A 
ATOM      8  C   UNL d   1      59.077  -9.772  31.286  0.00  0.00     0.002 A 
ATOM      9  C   UNL d   1      57.678  -9.805  31.593  0.00  0.00     0.002 A 
ATOM     10  C   UNL d   1      58.293  -9.818  31.037  0.00  0.00     0.000 A 
ENDROOT
BRANCH   2  11
ATOM     11  N   UNL d   1      59.777  -9.536  34.502  0.00  0.00    -0.286 N 
ATOM     12  C   UNL d   1      59.216  -9.762  35.062  0.00  0.00     0.102 A 
ATOM     13  C   UNL d   1      59.390  -9.703  35.863  0.00  0.00     0.118 A 
ATOM     14  N   UNL d   1      60.124  -9.419  36.105  0.00  0.00    -0.239 NA
ATOM     15  C   UNL d   1      60.686  -9.193  35.545  0.00  0.00     0.118 A 
ATOM     16  C   UNL d   1      60.511  -9.252  34.740  0.00  0.00     0.102 A 
ENDBRANCH   2  11
TORSDOF 1
ENDMDL
