MODEL 1
REMARK VINA RESULT:      -6.2      0.000      0.000
REMARK  4 active torsions:
REMARK  status: ('A' for Active; 'I' for Inactive)
REMARK    1  A    between atoms: C_2  and  C_1 
REMARK    2  A    between atoms: C_15  and  C_8 
REMARK    3  A    between atoms: C_9  and  C_15 
REMARK    4  A    between atoms: C_18  and  C_10 
ROOT
ATOM      1  C   UNL d   1     -39.792  14.597  17.905  0.00  0.00     0.094 A 
ATOM      2  N   UNL d   1     -39.421  15.134  18.410  0.00  0.00    -0.238 NA
ATOM      3  C   UNL d   1     -39.986  15.337  18.987  0.00  0.00     0.113 A 
ATOM      4  S   UNL d   1     -40.702  14.925  18.834  0.00  0.00    -0.066 SA
ATOM      5  C   UNL d   1     -40.565  14.472  18.161  0.00  0.00     0.056 A 
ENDROOT
BRANCH   3   6
ATOM      6  C   UNL d   1     -39.869  15.853  19.603  0.00  0.00     0.051 C 
BRANCH   6   7
ATOM      7  C   UNL d   1     -39.799  15.581  20.368  0.00  0.00     0.113 A 
ATOM      8  N   UNL d   1     -39.273  15.037  20.716  0.00  0.00    -0.238 NA
ATOM      9  C   UNL d   1     -39.464  14.975  21.528  0.00  0.00     0.088 A 
ATOM     10  C   UNL d   1     -40.101  15.483  21.655  0.00  0.00     0.056 A 
ATOM     11  S   UNL d   1     -40.309  15.851  20.966  0.00  0.00    -0.066 SA
BRANCH   9  12
ATOM     12  C   UNL d   1     -39.081  14.498  22.070  0.00  0.00     0.018 A 
ATOM     13  C   UNL d   1     -38.529  14.794  22.574  0.00  0.00     0.002 A 
ATOM     14  C   UNL d   1     -38.147  14.311  23.117  0.00  0.00     0.000 A 
ATOM     15  C   UNL d   1     -38.333  13.516  23.142  0.00  0.00     0.000 A 
ATOM     16  C   UNL d   1     -38.889  13.212  22.635  0.00  0.00     0.000 A 
ATOM     17  C   UNL d   1     -37.940  13.027  23.698  0.00  0.00     0.000 C 
ATOM     18  C   UNL d   1     -39.263  13.698  22.101  0.00  0.00     0.002 A 
ENDBRANCH   9  12
ENDBRANCH   6   7
ENDBRANCH   3   6
BRANCH   1  19
ATOM     19  C   UNL d   1     -39.362  14.286  17.260  0.00  0.00     0.082 A 
ATOM     20  C   UNL d   1     -39.048  13.470  17.278  0.00  0.00     0.302 A 
ATOM     21  O   UNL d   1     -38.625  13.180  16.630  0.00  0.00    -0.273 OA
ATOM     22  O   UNL d   1     -39.161  12.946  17.953  0.00  0.00    -0.259 OA
ATOM     23  C   UNL d   1     -38.496  13.664  15.956  0.00  0.00     0.103 A 
ATOM     24  C   UNL d   1     -38.792  14.433  15.938  0.00  0.00     0.023 A 
ATOM     25  C   UNL d   1     -38.068  13.339  15.327  0.00  0.00     0.025 A 
ATOM     26  C   UNL d   1     -39.224  14.747  16.586  0.00  0.00     0.009 A 
ATOM     27  C   UNL d   1     -38.661  14.911  15.264  0.00  0.00     0.002 A 
ATOM     28  C   UNL d   1     -38.238  14.621  14.615  0.00  0.00     0.000 A 
ATOM     29  C   UNL d   1     -37.940  13.818  14.657  0.00  0.00     0.002 A 
ENDBRANCH   1  19
TORSDOF 4
ENDMDL
MODEL 2
REMARK VINA RESULT:      -4.4      1.210      1.963
REMARK  4 active torsions:
REMARK  status: ('A' for Active; 'I' for Inactive)
REMARK    1  A    between atoms: C_2  and  C_1 
REMARK    2  A    between atoms: C_15  and  C_8 
REMARK    3  A    between atoms: C_9  and  C_15 
REMARK    4  A    between atoms: C_18  and  C_10 
ROOT
ATOM      1  C   UNL d   1     -38.951  14.610  17.769  0.00  0.00     0.094 A 
ATOM      2  N   UNL d   1     -39.505  14.670  18.378  0.00  0.00    -0.238 NA
ATOM      3  C   UNL d   1     -39.638  15.483  18.491  0.00  0.00     0.113 A 
ATOM      4  S   UNL d   1     -39.166  15.922  17.952  0.00  0.00    -0.066 SA
ATOM      5  C   UNL d   1     -38.746  15.367  17.512  0.00  0.00     0.056 A 
ENDROOT
BRANCH   3   6
ATOM      6  C   UNL d   1     -40.145  15.809  19.036  0.00  0.00     0.051 C 
BRANCH   6   7
ATOM      7  C   UNL d   1     -40.131  15.570  19.815  0.00  0.00     0.113 A 
ATOM      8  N   UNL d   1     -39.524  15.248  20.284  0.00  0.00    -0.238 NA
ATOM      9  C   UNL d   1     -39.833  15.109  21.049  0.00  0.00     0.088 A 
ATOM     10  C   UNL d   1     -40.621  15.351  21.027  0.00  0.00     0.056 A 
ATOM     11  S   UNL d   1     -40.809  15.629  20.291  0.00  0.00    -0.066 SA
BRANCH   9  12
ATOM     12  C   UNL d   1     -39.417  14.796  21.679  0.00  0.00     0.018 A 
ATOM     13  C   UNL d   1     -39.481  14.019  21.879  0.00  0.00     0.002 A 
ATOM     14  C   UNL d   1     -39.061  13.708  22.512  0.00  0.00     0.000 A 
ATOM     15  C   UNL d   1     -38.572  14.200  22.944  0.00  0.00     0.000 A 
ATOM     16  C   UNL d   1     -38.504  14.984  22.746  0.00  0.00     0.000 A 
ATOM     17  C   UNL d   1     -38.145  13.877  23.591  0.00  0.00     0.000 C 
ATOM     18  C   UNL d   1     -38.924  15.283  22.117  0.00  0.00     0.002 A 
ENDBRANCH   9  12
ENDBRANCH   6   7
ENDBRANCH   3   6
BRANCH   1  19
ATOM     19  C   UNL d   1     -38.699  13.852  17.523  0.00  0.00     0.082 A 
ATOM     20  C   UNL d   1     -38.440  13.707  16.701  0.00  0.00     0.302 A 
ATOM     21  O   UNL d   1     -38.195  12.950  16.477  0.00  0.00    -0.273 OA
ATOM     22  O   UNL d   1     -38.429  14.328  16.104  0.00  0.00    -0.259 OA
ATOM     23  C   UNL d   1     -38.193  12.322  17.034  0.00  0.00     0.103 A 
ATOM     24  C   UNL d   1     -38.438  12.458  17.809  0.00  0.00     0.023 A 
ATOM     25  C   UNL d   1     -37.941  11.579  16.773  0.00  0.00     0.025 A 
ATOM     26  C   UNL d   1     -38.690  13.219  18.057  0.00  0.00     0.009 A 
ATOM     27  C   UNL d   1     -38.435  11.829  18.361  0.00  0.00     0.002 A 
ATOM     28  C   UNL d   1     -38.189  11.072  18.137  0.00  0.00     0.000 A 
ATOM     29  C   UNL d   1     -37.940  10.954  17.325  0.00  0.00     0.002 A 
ENDBRANCH   1  19
TORSDOF 4
ENDMDL
MODEL 3
REMARK VINA RESULT:      -4.3      4.351      6.815
REMARK  4 active torsions:
REMARK  status: ('A' for Active; 'I' for Inactive)
REMARK    1  A    between atoms: C_2  and  C_1 
REMARK    2  A    between atoms: C_15  and  C_8 
REMARK    3  A    between atoms: C_9  and  C_15 
REMARK    4  A    between atoms: C_18  and  C_10 
ROOT
ATOM      1  C   UNL d   1     -43.542  12.981  21.558  0.00  0.00     0.094 A 
ATOM      2  N   UNL d   1     -42.954  13.470  21.870  0.00  0.00    -0.238 NA
ATOM      3  C   UNL d   1     -42.331  13.462  21.318  0.00  0.00     0.113 A 
ATOM      4  S   UNL d   1     -42.537  12.970  20.669  0.00  0.00    -0.066 SA
ATOM      5  C   UNL d   1     -43.290  12.680  20.833  0.00  0.00     0.056 A 
ENDROOT
BRANCH   3   6
ATOM      6  C   UNL d   1     -41.630  13.866  21.390  0.00  0.00     0.051 C 
BRANCH   6   7
ATOM      7  C   UNL d   1     -41.298  14.246  20.749  0.00  0.00     0.113 A 
ATOM      8  N   UNL d   1     -40.980  13.955  20.037  0.00  0.00    -0.238 NA
ATOM      9  C   UNL d   1     -40.719  14.608  19.584  0.00  0.00     0.088 A 
ATOM     10  C   UNL d   1     -40.884  15.280  20.031  0.00  0.00     0.056 A 
ATOM     11  S   UNL d   1     -41.231  15.074  20.731  0.00  0.00    -0.066 SA
BRANCH   9  12
ATOM     12  C   UNL d   1     -40.372  14.564  18.846  0.00  0.00     0.018 A 
ATOM     13  C   UNL d   1     -40.750  14.827  18.187  0.00  0.00     0.002 A 
ATOM     14  C   UNL d   1     -40.397  14.781  17.447  0.00  0.00     0.000 A 
ATOM     15  C   UNL d   1     -39.648  14.461  17.384  0.00  0.00     0.000 A 
ATOM     16  C   UNL d   1     -39.262  14.194  18.045  0.00  0.00     0.000 A 
ATOM     17  C   UNL d   1     -39.291  14.415  16.626  0.00  0.00     0.000 C 
ATOM     18  C   UNL d   1     -39.619  14.243  18.774  0.00  0.00     0.002 A 
ENDBRANCH   9  12
ENDBRANCH   6   7
ENDBRANCH   3   6
BRANCH   1  19
ATOM     19  C   UNL d   1     -44.249  12.874  21.989  0.00  0.00     0.082 A 
ATOM     20  C   UNL d   1     -44.368  12.170  22.494  0.00  0.00     0.302 A 
ATOM     21  O   UNL d   1     -45.075  12.081  22.913  0.00  0.00    -0.273 OA
ATOM     22  O   UNL d   1     -43.771  11.553  22.575  0.00  0.00    -0.259 OA
ATOM     23  C   UNL d   1     -45.677  12.663  22.857  0.00  0.00     0.103 A 
ATOM     24  C   UNL d   1     -45.566  13.327  22.382  0.00  0.00     0.023 A 
ATOM     25  C   UNL d   1     -46.370  12.539  23.291  0.00  0.00     0.025 A 
ATOM     26  C   UNL d   1     -44.856  13.436  21.948  0.00  0.00     0.009 A 
ATOM     27  C   UNL d   1     -46.170  13.904  22.329  0.00  0.00     0.002 A 
ATOM     28  C   UNL d   1     -46.877  13.815  22.749  0.00  0.00     0.000 A 
ATOM     29  C   UNL d   1     -46.970  13.117  23.236  0.00  0.00     0.002 A 
ENDBRANCH   1  19
TORSDOF 4
ENDMDL
MODEL 4
REMARK VINA RESULT:      -3.4      6.081      7.959
REMARK  4 active torsions:
REMARK  status: ('A' for Active; 'I' for Inactive)
REMARK    1  A    between atoms: C_2  and  C_1 
REMARK    2  A    between atoms: C_15  and  C_8 
REMARK    3  A    between atoms: C_9  and  C_15 
REMARK    4  A    between atoms: C_18  and  C_10 
ROOT
ATOM      1  C   UNL d   1     -45.859  13.159  22.369  0.00  0.00     0.094 A 
ATOM      2  N   UNL d   1     -45.443  13.193  21.657  0.00  0.00    -0.238 NA
ATOM      3  C   UNL d   1     -44.790  12.686  21.747  0.00  0.00     0.113 A 
ATOM      4  S   UNL d   1     -44.805  12.342  22.513  0.00  0.00    -0.066 SA
ATOM      5  C   UNL d   1     -45.474  12.645  22.886  0.00  0.00     0.056 A 
ENDROOT
BRANCH   3   6
ATOM      6  C   UNL d   1     -44.221  12.542  21.185  0.00  0.00     0.051 C 
BRANCH   6   7
ATOM      7  C   UNL d   1     -43.466  12.839  21.268  0.00  0.00     0.113 A 
ATOM      8  N   UNL d   1     -43.115  13.543  20.995  0.00  0.00    -0.238 NA
ATOM      9  C   UNL d   1     -42.318  13.551  21.251  0.00  0.00     0.088 A 
ATOM     10  C   UNL d   1     -42.204  12.853  21.673  0.00  0.00     0.056 A 
ATOM     11  S   UNL d   1     -42.886  12.419  21.689  0.00  0.00    -0.066 SA
BRANCH   9  12
ATOM     12  C   UNL d   1     -41.778  14.146  21.100  0.00  0.00     0.018 A 
ATOM     13  C   UNL d   1     -42.005  14.915  21.046  0.00  0.00     0.002 A 
ATOM     14  C   UNL d   1     -41.459  15.509  20.894  0.00  0.00     0.000 A 
ATOM     15  C   UNL d   1     -40.673  15.311  20.797  0.00  0.00     0.000 A 
ATOM     16  C   UNL d   1     -40.439  14.536  20.851  0.00  0.00     0.000 A 
ATOM     17  C   UNL d   1     -40.119  15.921  20.642  0.00  0.00     0.000 C 
ATOM     18  C   UNL d   1     -40.986  13.954  21.001  0.00  0.00     0.002 A 
ENDBRANCH   9  12
ENDBRANCH   6   7
ENDBRANCH   3   6
BRANCH   1  19
ATOM     19  C   UNL d   1     -46.554  13.615  22.454  0.00  0.00     0.082 A 
ATOM     20  C   UNL d   1     -46.538  14.395  22.849  0.00  0.00     0.302 A 
ATOM     21  O   UNL d   1     -47.236  14.830  22.923  0.00  0.00    -0.273 OA
ATOM     22  O   UNL d   1     -45.814  14.734  23.171  0.00  0.00    -0.259 OA
ATOM     23  C   UNL d   1     -47.959  14.529  22.621  0.00  0.00     0.103 A 
ATOM     24  C   UNL d   1     -47.976  13.794  22.248  0.00  0.00     0.023 A 
ATOM     25  C   UNL d   1     -48.637  14.994  22.714  0.00  0.00     0.025 A 
ATOM     26  C   UNL d   1     -47.278  13.336  22.163  0.00  0.00     0.009 A 
ATOM     27  C   UNL d   1     -48.698  13.498  21.949  0.00  0.00     0.002 A 
ATOM     28  C   UNL d   1     -49.397  13.934  22.023  0.00  0.00     0.000 A 
ATOM     29  C   UNL d   1     -49.356  14.696  22.414  0.00  0.00     0.002 A 
ENDBRANCH   1  19
TORSDOF 4
ENDMDL
