MODEL 1
REMARK VINA RESULT:      11.4      0.000      0.000
REMARK  6 active torsions:
REMARK  status: ('A' for Active; 'I' for Inactive)
REMARK    1  A    between atoms: C_8  and  C_1 
REMARK    2  A    between atoms: C_13  and  N_2 
REMARK    3  A    between atoms: C_7  and  C_4 
REMARK    4  A    between atoms: C_6  and  C_8 
REMARK    5  A    between atoms: C_22  and  C_13 
REMARK    6  A    between atoms: N_18  and  C_22 
ROOT
ATOM      1  C   UNL d   1     -42.347-122.312 -51.570  0.00  0.00     0.103 A 
ATOM      2  N   UNL d   1     -42.347-123.027 -50.438  0.00  0.00    -0.267 N 
ATOM      3  C   UNL d   1     -41.686-122.809 -51.585  0.00  0.00     0.256 A 
ATOM      4  C   UNL d   1     -42.750-122.447 -50.866  0.00  0.00     0.096 A 
ATOM      5  C   UNL d   1     -41.686-123.250 -50.886  0.00  0.00     0.304 A 
ATOM      6  O   UNL d   1     -41.123-123.817 -50.671  0.00  0.00    -0.263 OA
ATOM      7  O   UNL d   1     -41.123-122.864 -52.181  0.00  0.00    -0.281 OA
ENDROOT
BRANCH   1   8
ATOM      8  C   UNL d   1     -42.557-121.778 -52.161  0.00  0.00     0.223 C 
ATOM      9  O   UNL d   1     -42.882-121.042 -51.956  0.00  0.00    -0.284 OA
BRANCH   8  10
ATOM     10  C   UNL d   1     -42.447-121.970 -52.958  0.00  0.00     0.139 A 
ATOM     11  O   UNL d   1     -42.173-122.693 -53.250  0.00  0.00    -0.304 OA
ATOM     12  C   UNL d   1     -42.148-122.644 -54.067  0.00  0.00     0.100 A 
ATOM     13  C   UNL d   1     -41.931-123.165 -54.645  0.00  0.00     0.025 A 
ATOM     14  C   UNL d   1     -42.407-121.890 -54.284  0.00  0.00     0.025 A 
ATOM     15  C   UNL d   1     -41.963-122.963 -55.432  0.00  0.00     0.002 A 
ATOM     16  C   UNL d   1     -42.221-122.212 -55.653  0.00  0.00     0.000 A 
ATOM     17  C   UNL d   1     -42.442-121.681 -55.068  0.00  0.00     0.002 A 
ATOM     18  C   UNL d   1     -42.592-121.476 -53.591  0.00  0.00     0.030 A 
ENDBRANCH   8  10
ENDBRANCH   1   8
BRANCH   4  19
ATOM     19  C   UNL d   1     -43.449-122.064 -50.626  0.00  0.00     0.116 A 
ATOM     20  O   UNL d   1     -44.232-122.206 -50.804  0.00  0.00    -0.306 OA
ATOM     21  C   UNL d   1     -44.688-121.653 -50.411  0.00  0.00     0.100 A 
ATOM     22  C   UNL d   1     -45.510-121.604 -50.443  0.00  0.00     0.027 C 
ATOM     23  C   UNL d   1     -44.181-121.161 -49.984  0.00  0.00     0.027 A 
ATOM     24  C   UNL d   1     -43.414-121.415 -50.117  0.00  0.00     0.028 A 
ENDBRANCH   4  19
BRANCH   2  25
ATOM     25  C   UNL d   1     -42.557-123.326 -49.708  0.00  0.00     0.102 C 
BRANCH  25  26
ATOM     26  C   UNL d   1     -41.977-123.493 -49.146  0.00  0.00     0.100 C 
BRANCH  26  27
ATOM     27  N   UNL d   1     -42.185-123.601 -48.356  0.00  0.00    -0.298 N 
ATOM     28  C   UNL d   1     -41.607-123.600 -47.775  0.00  0.00     0.107 A 
ATOM     29  C   UNL d   1     -41.808-123.707 -46.983  0.00  0.00     0.142 A 
ATOM     30  O   UNL d   1     -42.593-123.815 -46.773  0.00  0.00    -0.300 OA
ATOM     31  C   UNL d   1     -43.182-123.817 -47.352  0.00  0.00     0.142 A 
ATOM     32  C   UNL d   1     -42.971-123.708 -48.147  0.00  0.00     0.107 A 
ENDBRANCH  26  27
ENDBRANCH  25  26
ENDBRANCH   2  25
TORSDOF 6
ENDMDL
