MODEL 1
REMARK VINA RESULT:      41.9      0.000      0.000
REMARK  5 active torsions:
REMARK  status: ('A' for Active; 'I' for Inactive)
REMARK    1  A    between atoms: O_8  and  C_2 
REMARK    2  A    between atoms: C_11  and  C_5 
REMARK    3  A    between atoms: C_15  and  O_8 
REMARK    4  A    between atoms: N_14  and  C_11 
REMARK    5  A    between atoms: O_23  and  C_16 
ROOT
ATOM      1  C   UNL d   1      14.665  14.046  -1.369  0.00  0.00     0.108 A 
ATOM      2  C   UNL d   1      13.925  12.729  -2.060  0.00  0.00     0.161 A 
ATOM      3  C   UNL d   1      14.771  13.284  -1.039  0.00  0.00     0.064 A 
ATOM      4  C   UNL d   1      14.406  12.632  -1.380  0.00  0.00     0.222 A 
ATOM      5  C   UNL d   1      15.035  14.705  -1.023  0.00  0.00     0.079 A 
ATOM      6  O   UNL d   1      14.191  14.152  -2.041  0.00  0.00    -0.305 OA
ATOM      7  C   UNL d   1      13.820  13.483  -2.387  0.00  0.00     0.126 A 
ATOM      8  C   UNL d   1      15.250  13.198  -0.363  0.00  0.00     0.009 A 
ATOM      9  C   UNL d   1      15.508  14.603  -0.352  0.00  0.00     0.199 A 
ATOM     10  O   UNL d   1      14.508  11.879  -1.058  0.00  0.00    -0.284 OA
ATOM     11  C   UNL d   1      15.615  13.854  -0.024  0.00  0.00     0.042 A 
ATOM     12  O   UNL d   1      15.872  15.266  -0.016  0.00  0.00    -0.286 OA
ATOM     13  C   UNL d   1      13.348  13.578  -3.055  0.00  0.00     0.029 C 
ENDROOT
BRANCH   2  14
ATOM     14  O   UNL d   1      13.561  12.074  -2.400  0.00  0.00    -0.302 OA
BRANCH  14  15
ATOM     15  C   UNL d   1      13.529  12.001  -3.220  0.00  0.00     0.100 A 
ATOM     16  C   UNL d   1      12.805  12.078  -3.609  0.00  0.00     0.027 A 
ATOM     17  C   UNL d   1      12.769  12.006  -4.422  0.00  0.00     0.026 A 
ATOM     18  C   UNL d   1      13.463  11.855  -4.858  0.00  0.00     0.094 A 
ATOM     19  C   UNL d   1      14.184  11.779  -4.465  0.00  0.00     0.026 A 
ATOM     20  C   UNL d   1      14.216  11.852  -3.646  0.00  0.00     0.027 A 
BRANCH  18  21
ATOM     21  O   UNL d   1      13.430  11.782  -5.678  0.00  0.00    -0.328 OA
ATOM     22  C   UNL d   1      13.936  12.230  -6.151  0.00  0.00     0.181 C 
ENDBRANCH  18  21
ENDBRANCH  14  15
ENDBRANCH   2  14
BRANCH   5  23
ATOM     23  C   UNL d   1      14.927  15.454  -1.351  0.00  0.00     0.086 C 
BRANCH  23  24
ATOM     24  N   UNL d   1      14.959  16.115  -0.869  0.00  0.00    -0.300 N 
ATOM     25  C   UNL d   1      14.570  16.112  -0.141  0.00  0.00     0.100 C 
ATOM     26  C   UNL d   1      15.378  16.788  -1.105  0.00  0.00     0.100 C 
ENDBRANCH  23  24
ENDBRANCH   5  23
TORSDOF 5
ENDMDL
