MODEL 1
REMARK VINA RESULT:      26.1      0.000      0.000
REMARK  1 active torsions:
REMARK  status: ('A' for Active; 'I' for Inactive)
REMARK    1  A    between atoms: C_7  and  C_4 
ROOT
ATOM      1  N   UNL d   1      59.788  49.615  49.937  0.00  0.00    -0.211 NA
ATOM      2  C   UNL d   1      60.545  49.609  50.266  0.00  0.00     0.140 A 
ATOM      3  C   UNL d   1      60.636  49.640  51.086  0.00  0.00     0.051 A 
ATOM      4  C   UNL d   1      59.119  49.652  50.429  0.00  0.00     0.183 A 
ATOM      5  C   UNL d   1      59.967  49.677  51.578  0.00  0.00     0.104 A 
ATOM      6  O   UNL d   1      59.211  49.683  51.249  0.00  0.00    -0.289 OA
ATOM      7  S   UNL d   1      61.212  49.572  49.780  0.00  0.00    -0.057 SA
ATOM      8  C   UNL d   1      61.388  49.634  51.418  0.00  0.00     0.004 A 
ATOM      9  C   UNL d   1      60.064  49.707  52.384  0.00  0.00     0.025 A 
ATOM     10  C   UNL d   1      61.475  49.665  52.225  0.00  0.00     0.000 A 
ATOM     11  C   UNL d   1      60.820  49.701  52.713  0.00  0.00     0.002 A 
ENDROOT
BRANCH   4  12
ATOM     12  C   UNL d   1      58.363  49.657  50.100  0.00  0.00     0.041 A 
ATOM     13  C   UNL d   1      57.701  49.621  50.593  0.00  0.00     0.004 A 
ATOM     14  C   UNL d   1      56.946  49.627  50.272  0.00  0.00     0.007 A 
ATOM     15  C   UNL d   1      56.844  49.669  49.444  0.00  0.00     0.035 A 
ATOM     16  C   UNL d   1      57.506  49.705  48.954  0.00  0.00     0.007 A 
ATOM     17 BR   UNL d   1      56.084  49.675  49.115  0.00  0.00    -0.049 Br
ATOM     18  C   UNL d   1      58.270  49.700  49.279  0.00  0.00     0.004 A 
ENDBRANCH   4  12
TORSDOF 1
ENDMDL
