MODEL 1
REMARK VINA RESULT:      75.8      0.000      0.000
REMARK  6 active torsions:
REMARK  status: ('A' for Active; 'I' for Inactive)
REMARK    1  A    between atoms: N_3  and  C_1 
REMARK    2  A    between atoms: C_16  and  N_2 
REMARK       I    between atoms: C_7  and  N_3 
REMARK    3  A    between atoms: C_14  and  C_7 
REMARK    4  A    between atoms: C_10  and  S_11 
REMARK    5  A    between atoms: S_11  and  C_14 
REMARK    6  A    between atoms: O_18  and  C_15 
ROOT
ATOM      1  C   UNL d   1     -57.852-100.152 -44.149  0.00  0.00     0.182 A 
ATOM      2  N   UNL d   1     -57.226 -99.668 -43.910  0.00  0.00    -0.285 N 
ATOM      3  S   UNL d   1     -57.530-100.861 -44.438  0.00  0.00    -0.048 SA
ATOM      4  C   UNL d   1     -56.703-100.809 -44.374  0.00  0.00     0.050 A 
ATOM      5  C   UNL d   1     -56.515-100.074 -44.049  0.00  0.00     0.072 A 
ATOM      6  C   UNL d   1     -56.104-101.347 -44.575  0.00  0.00     0.032 A 
ATOM      7  C   UNL d   1     -55.728 -99.874 -43.924  0.00  0.00     0.020 A 
ATOM      8  C   UNL d   1     -55.321-101.131 -44.443  0.00  0.00     0.095 A 
ATOM      9  C   UNL d   1     -55.134-100.395 -44.118  0.00  0.00     0.026 A 
ENDROOT
BRANCH   1  10
ATOM     10  N   UNL d   1     -58.657 -99.965 -44.109  0.00  0.00    -0.183 NA
ATOM     11  C   UNL d   1     -58.680 -99.188 -43.819  0.00  0.00     0.288 C 
ATOM     12  O   UNL d   1     -57.973 -98.789 -43.644  0.00  0.00    -0.265 OA
BRANCH  11  13
ATOM     13  C   UNL d   1     -59.398 -98.808 -43.703  0.00  0.00     0.101 C 
BRANCH  13  14
ATOM     14  S   UNL d   1     -59.937 -99.088 -43.137  0.00  0.00    -0.040 SA
BRANCH  14  15
ATOM     15  C   UNL d   1     -59.669 -99.317 -42.383  0.00  0.00     0.226 C 
ATOM     16  O   UNL d   1     -59.644 -98.756 -41.778  0.00  0.00    -0.279 OA
ATOM     17  C   UNL d   1     -59.435-100.088 -42.250  0.00  0.00     0.053 C 
ENDBRANCH  14  15
ENDBRANCH  13  14
ENDBRANCH  11  13
ENDBRANCH   1  10
BRANCH   2  18
ATOM     18  C   UNL d   1     -57.301 -98.917 -43.591  0.00  0.00     0.082 C 
ATOM     19  C   UNL d   1     -57.211 -98.792 -42.781  0.00  0.00     0.021 C 
ENDBRANCH   2  18
BRANCH   8  20
ATOM     20  O   UNL d   1     -54.712-101.660 -44.640  0.00  0.00    -0.328 OA
ATOM     21  C   UNL d   1     -54.806-102.177 -45.267  0.00  0.00     0.181 C 
ENDBRANCH   8  20
TORSDOF 6
ENDMDL
