MODEL 1
REMARK VINA RESULT:      28.7      0.000      0.000
REMARK  11 active torsions:
REMARK  status: ('A' for Active; 'I' for Inactive)
REMARK    1  A    between atoms: N_2  and  S_1 
REMARK    2  A    between atoms: C_4  and  S_1 
REMARK    3  A    between atoms: C_22  and  N_2 
REMARK    4  A    between atoms: C_3  and  C_8 
REMARK       I    between atoms: N_16  and  C_3 
REMARK    5  A    between atoms: O_28  and  C_7 
REMARK    6  A    between atoms: C_9  and  C_10 
REMARK    7  A    between atoms: O_29  and  C_11 
REMARK    8  A    between atoms: C_30  and  N_16 
REMARK    9  A    between atoms: C_24  and  C_22 
REMARK   10  A    between atoms: C_23  and  C_34 
REMARK   11  A    between atoms: C_34  and  C_30 
ROOT
ATOM      1  C   UNL d   1     -41.529-123.188 -50.573  0.00  0.00     0.058 A 
ATOM      2  C   UNL d   1     -41.272-122.467 -50.861  0.00  0.00     0.005 A 
ATOM      3  C   UNL d   1     -41.654-123.817 -51.106  0.00  0.00     0.005 A 
ATOM      4  C   UNL d   1     -41.263-122.980 -52.198  0.00  0.00     0.020 A 
ATOM      5  C   UNL d   1     -41.138-122.356 -51.671  0.00  0.00     0.002 A 
ATOM      6  C   UNL d   1     -41.520-123.706 -51.916  0.00  0.00     0.002 A 
ENDROOT
BRANCH   1   7
ATOM      7  C   UNL d   1     -41.663-123.301 -49.772  0.00  0.00     0.279 C 
ATOM      8  O   UNL d   1     -41.123-123.742 -49.324  0.00  0.00    -0.265 OA
ATOM      9  N   UNL d   1     -42.328-122.978 -49.414  0.00  0.00    -0.206 NA
BRANCH   9  10
ATOM     10  C   UNL d   1     -42.458-123.094 -48.608  0.00  0.00     0.102 C 
BRANCH  10  11
ATOM     11  C   UNL d   1     -43.214-123.257 -48.345  0.00  0.00     0.021 C 
BRANCH  11  12
ATOM     12  C   UNL d   1     -43.837-123.217 -48.866  0.00  0.00     0.004 A 
ATOM     13  C   UNL d   1     -43.910-122.584 -49.390  0.00  0.00     0.026 A 
ATOM     14  C   UNL d   1     -44.538-122.552 -49.910  0.00  0.00     0.116 A 
ATOM     15  C   UNL d   1     -45.109-123.160 -49.911  0.00  0.00     0.116 A 
ATOM     16  C   UNL d   1     -45.041-123.785 -49.396  0.00  0.00     0.026 A 
ATOM     17  C   UNL d   1     -44.404-123.817 -48.869  0.00  0.00     0.002 A 
BRANCH  14  18
ATOM     18  O   UNL d   1     -44.607-121.916 -50.433  0.00  0.00    -0.326 OA
ATOM     19  C   UNL d   1     -44.433-121.075 -50.279  0.00  0.00     0.181 C 
ENDBRANCH  14  18
BRANCH  15  20
ATOM     20  O   UNL d   1     -45.740-123.143 -50.421  0.00  0.00    -0.326 OA
ATOM     21  C   UNL d   1     -46.421-122.752 -50.218  0.00  0.00     0.181 C 
ENDBRANCH  15  20
ENDBRANCH  11  12
ENDBRANCH  10  11
ENDBRANCH   9  10
ENDBRANCH   1   7
BRANCH   4  22
ATOM     22  C   UNL d   1     -41.128-122.869 -53.008  0.00  0.00     0.112 C 
BRANCH  22  23
ATOM     23  N   UNL d   1     -41.701-123.081 -53.555  0.00  0.00    -0.157 NA
BRANCH  23  24
ATOM     24  S   UNL d   1     -41.790-122.664 -54.263  0.00  0.00     0.285 S 
ATOM     25  O   UNL d   1     -41.200-122.142 -54.035  0.00  0.00    -0.198 OA
ATOM     26  O   UNL d   1     -42.386-123.194 -54.487  0.00  0.00    -0.198 OA
BRANCH  24  27
ATOM     27  C   UNL d   1     -41.890-122.259 -54.970  0.00  0.00     0.105 A 
ATOM     28  C   UNL d   1     -42.293-122.627 -55.588  0.00  0.00     0.013 A 
ATOM     29  C   UNL d   1     -42.399-122.223 -56.309  0.00  0.00    -0.004 A 
ATOM     30  C   UNL d   1     -42.096-121.455 -56.396  0.00  0.00    -0.023 A 
ATOM     31  C   UNL d   1     -41.696-121.094 -55.776  0.00  0.00    -0.004 A 
ATOM     32  C   UNL d   1     -41.593-121.500 -55.062  0.00  0.00     0.013 A 
BRANCH  30  33
ATOM     33  C   UNL d   1     -42.200-121.053 -57.110  0.00  0.00     0.019 C 
ATOM     34  C   UNL d   1     -41.564-120.562 -56.926  0.00  0.00     0.004 C 
ATOM     35  C   UNL d   1     -42.834-121.547 -57.286  0.00  0.00     0.004 C 
ATOM     36  C   UNL d   1     -42.302-120.651 -57.821  0.00  0.00     0.004 C 
ENDBRANCH  30  33
ENDBRANCH  24  27
ENDBRANCH  23  24
ENDBRANCH  22  23
ENDBRANCH   4  22
TORSDOF 11
ENDMDL
