MODEL 1
REMARK VINA RESULT:      -2.8      0.000      0.000
REMARK  4 active torsions:
REMARK  status: ('A' for Active; 'I' for Inactive)
REMARK    1  A    between atoms: N_6  and  C_1 
REMARK       I    between atoms: C_9  and  N_6 
REMARK    2  A    between atoms: C_12  and  C_9 
REMARK    3  A    between atoms: O_11  and  C_12 
REMARK    4  A    between atoms: C_15  and  O_11 
ROOT
ATOM      1  C   UNL d   1     -41.410-121.817 -53.154  0.00  0.00     0.124 A 
ATOM      2  C   UNL d   1     -41.816-121.777 -53.878  0.00  0.00     0.093 A 
ATOM      3  S   UNL d   1     -41.126-122.590 -53.067  0.00  0.00    -0.067 SA
ATOM      4  C   UNL d   1     -41.776-122.526 -54.228  0.00  0.00     0.018 A 
ATOM      5  C   UNL d   1     -41.356-123.014 -53.730  0.00  0.00     0.032 A 
ATOM      6  C   UNL d   1     -42.190-121.100 -54.185  0.00  0.00     0.103 C 
ATOM      7  N   UNL d   1     -42.558-120.444 -54.490  0.00  0.00    -0.191 NA
ATOM      8  C   UNL d   1     -42.110-122.731 -54.958  0.00  0.00     0.001 C 
ATOM      9  C   UNL d   1     -41.186-123.815 -53.870  0.00  0.00     0.007 C 
ENDROOT
BRANCH   1  10
ATOM     10  N   UNL d   1     -41.310-121.203 -52.623  0.00  0.00    -0.199 NA
ATOM     11  C   UNL d   1     -41.303-121.361 -51.817  0.00  0.00     0.305 C 
ATOM     12  O   UNL d   1     -41.202-120.740 -51.281  0.00  0.00    -0.263 OA
BRANCH  11  13
ATOM     13  C   UNL d   1     -41.394-122.116 -51.538  0.00  0.00     0.185 C 
BRANCH  13  14
ATOM     14  O   UNL d   1     -41.222-122.306 -50.767  0.00  0.00    -0.300 OA
BRANCH  14  15
ATOM     15  C   UNL d   1     -41.781-122.677 -50.283  0.00  0.00     0.100 A 
ATOM     16  C   UNL d   1     -41.641-123.454 -50.037  0.00  0.00     0.025 A 
ATOM     17  C   UNL d   1     -42.194-123.817 -49.560  0.00  0.00     0.002 A 
ATOM     18  C   UNL d   1     -42.877-123.415 -49.330  0.00  0.00     0.000 A 
ATOM     19  C   UNL d   1     -43.008-122.646 -49.578  0.00  0.00     0.002 A 
ATOM     20  C   UNL d   1     -42.452-122.279 -50.059  0.00  0.00     0.025 A 
ENDBRANCH  14  15
ENDBRANCH  13  14
ENDBRANCH  11  13
ENDBRANCH   1  10
TORSDOF 4
ENDMDL
MODEL 2
REMARK VINA RESULT:      -1.3      1.679      4.322
REMARK  4 active torsions:
REMARK  status: ('A' for Active; 'I' for Inactive)
REMARK    1  A    between atoms: N_6  and  C_1 
REMARK       I    between atoms: C_9  and  N_6 
REMARK    2  A    between atoms: C_12  and  C_9 
REMARK    3  A    between atoms: O_11  and  C_12 
REMARK    4  A    between atoms: C_15  and  O_11 
ROOT
ATOM      1  C   UNL d   1     -41.229-122.494 -51.782  0.00  0.00     0.124 A 
ATOM      2  C   UNL d   1     -41.459-122.481 -50.984  0.00  0.00     0.093 A 
ATOM      3  S   UNL d   1     -41.128-121.710 -52.028  0.00  0.00    -0.067 SA
ATOM      4  C   UNL d   1     -41.496-121.688 -50.748  0.00  0.00     0.018 A 
ATOM      5  C   UNL d   1     -41.294-121.227 -51.387  0.00  0.00     0.032 A 
ATOM      6  C   UNL d   1     -41.619-123.150 -50.516  0.00  0.00     0.103 C 
ATOM      7  N   UNL d   1     -41.778-123.799 -50.054  0.00  0.00    -0.191 NA
ATOM      8  C   UNL d   1     -41.704-121.424 -49.991  0.00  0.00     0.001 C 
ATOM      9  C   UNL d   1     -41.260-120.396 -51.391  0.00  0.00     0.007 C 
ENDROOT
BRANCH   1  10
ATOM     10  N   UNL d   1     -41.123-123.162 -52.242  0.00  0.00    -0.199 NA
ATOM     11  C   UNL d   1     -41.314-123.140 -53.040  0.00  0.00     0.305 C 
ATOM     12  O   UNL d   1     -41.206-123.816 -53.504  0.00  0.00    -0.263 OA
BRANCH  11  13
ATOM     13  C   UNL d   1     -41.607-122.466 -53.381  0.00  0.00     0.185 C 
BRANCH  13  14
ATOM     14  O   UNL d   1     -42.257-122.487 -53.867  0.00  0.00    -0.300 OA
BRANCH  14  15
ATOM     15  C   UNL d   1     -42.231-122.166 -54.629  0.00  0.00     0.100 A 
ATOM     16  C   UNL d   1     -42.925-122.153 -55.079  0.00  0.00     0.025 A 
ATOM     17  C   UNL d   1     -42.897-121.837 -55.830  0.00  0.00     0.002 A 
ATOM     18  C   UNL d   1     -42.190-121.536 -56.131  0.00  0.00     0.000 A 
ATOM     19  C   UNL d   1     -41.508-121.552 -55.679  0.00  0.00     0.002 A 
ATOM     20  C   UNL d   1     -41.535-121.870 -54.923  0.00  0.00     0.025 A 
ENDBRANCH  14  15
ENDBRANCH  13  14
ENDBRANCH  11  13
ENDBRANCH   1  10
TORSDOF 4
ENDMDL
