MODEL 1
REMARK VINA RESULT:      50.1      0.000      0.000
REMARK  7 active torsions:
REMARK  status: ('A' for Active; 'I' for Inactive)
REMARK    1  A    between atoms: S_10  and  C_4 
REMARK    2  A    between atoms: C_19  and  C_9 
REMARK    3  A    between atoms: C_13  and  S_10 
REMARK    4  A    between atoms: C_11  and  C_13 
REMARK       I    between atoms: N_14  and  C_11 
REMARK    5  A    between atoms: C_16  and  N_14 
REMARK    6  A    between atoms: C_20  and  C_16 
REMARK    7  A    between atoms: C_18  and  C_20 
ROOT
ATOM      1  C   UNL d   1     -51.225  25.326  33.318  0.00  0.00     0.141 A 
ATOM      2  C   UNL d   1     -51.256  24.503  33.315  0.00  0.00     0.110 A 
ATOM      3  O   UNL d   1     -52.000  25.612  33.319  0.00  0.00    -0.303 OA
ATOM      4  C   UNL d   1     -50.496  25.712  33.320  0.00  0.00     0.137 A 
ATOM      5  N   UNL d   1     -49.797  25.273  33.318  0.00  0.00    -0.218 NA
ATOM      6  C   UNL d   1     -52.050  24.278  33.314  0.00  0.00     0.043 A 
ATOM      7  N   UNL d   1     -50.557  24.063  33.313  0.00  0.00    -0.225 NA
ATOM      8  C   UNL d   1     -52.510  24.963  33.316  0.00  0.00     0.102 A 
ATOM      9  C   UNL d   1     -49.828  24.449  33.314  0.00  0.00     0.163 A 
ATOM     10  C   UNL d   1     -52.414  23.536  33.310  0.00  0.00     0.004 A 
ATOM     11  C   UNL d   1     -53.332  24.908  33.316  0.00  0.00     0.025 A 
ATOM     12  C   UNL d   1     -53.238  23.482  33.310  0.00  0.00     0.000 A 
ATOM     13  C   UNL d   1     -53.697  24.167  33.313  0.00  0.00     0.002 A 
ENDROOT
BRANCH   4  14
ATOM     14  S   UNL d   1     -50.464  26.537  33.323  0.00  0.00    -0.060 SA
BRANCH  14  15
ATOM     15  C   UNL d   1     -50.303  26.940  34.024  0.00  0.00     0.099 C 
BRANCH  15  16
ATOM     16  C   UNL d   1     -49.863  27.638  34.005  0.00  0.00     0.286 C 
ATOM     17  O   UNL d   1     -50.130  28.281  33.559  0.00  0.00    -0.265 OA
ATOM     18  N   UNL d   1     -49.159  27.695  34.429  0.00  0.00    -0.206 NA
BRANCH  18  19
ATOM     19  C   UNL d   1     -48.720  28.392  34.410  0.00  0.00     0.102 C 
BRANCH  19  20
ATOM     20  C   UNL d   1     -48.020  28.453  34.841  0.00  0.00     0.021 C 
BRANCH  20  21
ATOM     21  C   UNL d   1     -47.792  29.179  35.161  0.00  0.00     0.002 A 
ATOM     22  C   UNL d   1     -47.694  29.835  34.667  0.00  0.00     0.000 A 
ATOM     23  C   UNL d   1     -47.466  30.560  34.986  0.00  0.00     0.000 A 
ATOM     24  C   UNL d   1     -47.336  30.631  35.797  0.00  0.00     0.000 A 
ATOM     25  C   UNL d   1     -47.432  29.978  36.290  0.00  0.00     0.000 A 
ATOM     26  C   UNL d   1     -47.661  29.251  35.971  0.00  0.00     0.000 A 
ENDBRANCH  20  21
ENDBRANCH  19  20
ENDBRANCH  18  19
ENDBRANCH  15  16
ENDBRANCH  14  15
ENDBRANCH   4  14
BRANCH   9  27
ATOM     27  C   UNL d   1     -49.130  24.009  33.312  0.00  0.00     0.039 C 
ATOM     28  C   UNL d   1     -48.784  23.782  34.026  0.00  0.00     0.003 C 
ENDBRANCH   9  27
TORSDOF 7
ENDMDL
