MODEL 1
REMARK VINA RESULT:       5.1      0.000      0.000
REMARK  2 active torsions:
REMARK  status: ('A' for Active; 'I' for Inactive)
REMARK    1  A    between atoms: C_10  and  C_4 
REMARK       I    between atoms: N_12  and  C_10 
REMARK       I    between atoms: C_11  and  N_13 
REMARK    2  A    between atoms: C_14  and  C_11 
ROOT
ATOM      1  C   UNL d   1      59.426  -6.228  28.573  0.00  0.00     0.154 A 
ATOM      2  C   UNL d   1      58.751  -5.758  28.534  0.00  0.00     0.093 A 
ATOM      3  N   UNL d   1      59.353  -7.058  28.573  0.00  0.00    -0.211 NA
ATOM      4  C   UNL d   1      59.814  -4.951  28.589  0.00  0.00     0.122 A 
ATOM      5  N   UNL d   1      60.080  -5.732  28.607  0.00  0.00    -0.285 N 
ATOM      6  C   UNL d   1      58.001  -6.107  28.495  0.00  0.00     0.269 A 
ATOM      7  N   UNL d   1      57.925  -6.925  28.494  0.00  0.00    -0.259 N 
ATOM      8  C   UNL d   1      58.606  -7.409  28.534  0.00  0.00     0.140 A 
ATOM      9  C   UNL d   1      58.990  -4.974  28.544  0.00  0.00     0.030 A 
ATOM     10  C   UNL d   1      57.180  -7.276  28.455  0.00  0.00     0.084 A 
ATOM     11  O   UNL d   1      57.324  -5.632  28.456  0.00  0.00    -0.266 OA
ATOM     12  C   UNL d   1      58.537  -8.220  28.533  0.00  0.00     0.064 A 
ATOM     13  C   UNL d   1      57.114  -8.096  28.455  0.00  0.00     0.018 A 
ATOM     14  C   UNL d   1      57.799  -8.573  28.495  0.00  0.00    -0.008 A 
ATOM     15  C   UNL d   1      60.871  -5.976  28.651  0.00  0.00     0.101 C 
ENDROOT
BRANCH   4  16
ATOM     16  C   UNL d   1      60.286  -4.271  28.611  0.00  0.00     0.281 C 
ATOM     17  N   UNL d   1      59.945  -3.543  28.790  0.00  0.00    -0.268 N 
ATOM     18  C   UNL d   1      60.417  -2.863  28.813  0.00  0.00     0.102 A 
ATOM     19  C   UNL d   1      59.139  -3.487  28.947  0.00  0.00     0.102 A 
ATOM     20  C   UNL d   1      60.082  -2.127  28.992  0.00  0.00     0.102 A 
ATOM     21  N   UNL d   1      59.276  -2.078  29.147  0.00  0.00    -0.267 N 
ATOM     22  C   UNL d   1      58.938  -1.345  29.327  0.00  0.00     0.288 C 
ATOM     23  C   UNL d   1      58.814  -2.764  29.122  0.00  0.00     0.102 A 
ATOM     24  O   UNL d   1      58.133  -1.296  29.482  0.00  0.00    -0.264 OA
ATOM     25  O   UNL d   1      61.092  -4.327  28.455  0.00  0.00    -0.265 OA
BRANCH  22  26
ATOM     26  C   UNL d   1      59.420  -0.673  29.346  0.00  0.00     0.156 A 
ATOM     27  O   UNL d   1      59.926  -0.465  29.964  0.00  0.00    -0.300 OA
ATOM     28  C   UNL d   1      60.300   0.233  29.767  0.00  0.00     0.123 A 
ATOM     29  C   UNL d   1      60.033   0.474  29.023  0.00  0.00     0.029 A 
ATOM     30  C   UNL d   1      59.488  -0.091  28.767  0.00  0.00     0.032 A 
ENDBRANCH  22  26
ENDBRANCH   4  16
TORSDOF 2
ENDMDL
MODEL 2
REMARK VINA RESULT:       6.6      5.243      7.178
REMARK  2 active torsions:
REMARK  status: ('A' for Active; 'I' for Inactive)
REMARK    1  A    between atoms: C_10  and  C_4 
REMARK       I    between atoms: N_12  and  C_10 
REMARK       I    between atoms: C_11  and  N_13 
REMARK    2  A    between atoms: C_14  and  C_11 
ROOT
ATOM      1  C   UNL d   1      59.342   0.193  31.421  0.00  0.00     0.154 A 
ATOM      2  C   UNL d   1      58.602   0.297  31.076  0.00  0.00     0.093 A 
ATOM      3  N   UNL d   1      60.008   0.056  30.940  0.00  0.00    -0.211 NA
ATOM      4  C   UNL d   1      58.457   0.392  32.400  0.00  0.00     0.122 A 
ATOM      5  N   UNL d   1      59.253   0.251  32.236  0.00  0.00    -0.285 N 
ATOM      6  C   UNL d   1      58.518   0.268  30.252  0.00  0.00     0.269 A 
ATOM      7  N   UNL d   1      59.173   0.133  29.775  0.00  0.00    -0.259 N 
ATOM      8  C   UNL d   1      59.927   0.026  30.119  0.00  0.00     0.140 A 
ATOM      9  C   UNL d   1      58.059   0.420  31.678  0.00  0.00     0.030 A 
ATOM     10  C   UNL d   1      59.093   0.103  28.954  0.00  0.00     0.084 A 
ATOM     11  O   UNL d   1      57.772   0.373  29.908  0.00  0.00    -0.266 OA
ATOM     12  C   UNL d   1      60.580  -0.107  29.649  0.00  0.00     0.064 A 
ATOM     13  C   UNL d   1      59.753  -0.032  28.484  0.00  0.00     0.018 A 
ATOM     14  C   UNL d   1      60.504  -0.138  28.835  0.00  0.00    -0.008 A 
ATOM     15  C   UNL d   1      59.860   0.179  32.795  0.00  0.00     0.101 C 
ENDROOT
BRANCH   4  16
ATOM     16  C   UNL d   1      58.120   0.487  33.150  0.00  0.00     0.281 C 
ATOM     17  N   UNL d   1      57.301   0.470  33.236  0.00  0.00    -0.268 N 
ATOM     18  C   UNL d   1      56.964   0.566  33.986  0.00  0.00     0.102 A 
ATOM     19  C   UNL d   1      56.815   0.357  32.580  0.00  0.00     0.102 A 
ATOM     20  C   UNL d   1      56.141   0.549  34.080  0.00  0.00     0.102 A 
ATOM     21  N   UNL d   1      55.662   0.437  33.422  0.00  0.00    -0.267 N 
ATOM     22  C   UNL d   1      54.840   0.419  33.512  0.00  0.00     0.288 C 
ATOM     23  C   UNL d   1      56.010   0.342  32.676  0.00  0.00     0.102 A 
ATOM     24  O   UNL d   1      54.361   0.307  32.854  0.00  0.00    -0.264 OA
ATOM     25  O   UNL d   1      58.605   0.600  33.805  0.00  0.00    -0.265 OA
BRANCH  22  26
ATOM     26  C   UNL d   1      54.516   0.516  34.266  0.00  0.00     0.156 A 
ATOM     27  O   UNL d   1      54.944   0.548  34.971  0.00  0.00    -0.300 OA
ATOM     28  C   UNL d   1      54.418   0.648  35.588  0.00  0.00     0.123 A 
ATOM     29  C   UNL d   1      53.652   0.681  35.278  0.00  0.00     0.029 A 
ATOM     30  C   UNL d   1      53.718   0.599  34.459  0.00  0.00     0.032 A 
ENDBRANCH  22  26
ENDBRANCH   4  16
TORSDOF 2
ENDMDL
MODEL 3
REMARK VINA RESULT:       7.1      4.405      6.692
REMARK  2 active torsions:
REMARK  status: ('A' for Active; 'I' for Inactive)
REMARK    1  A    between atoms: C_10  and  C_4 
REMARK       I    between atoms: N_12  and  C_10 
REMARK       I    between atoms: C_11  and  N_13 
REMARK    2  A    between atoms: C_14  and  C_11 
ROOT
ATOM      1  C   UNL d   1      58.430  -0.687  29.941  0.00  0.00     0.154 A 
ATOM      2  C   UNL d   1      58.714  -0.189  30.531  0.00  0.00     0.093 A 
ATOM      3  N   UNL d   1      58.898  -0.842  29.270  0.00  0.00    -0.211 NA
ATOM      4  C   UNL d   1      57.498  -0.607  30.893  0.00  0.00     0.122 A 
ATOM      5  N   UNL d   1      57.682  -0.945  30.163  0.00  0.00    -0.285 N 
ATOM      6  C   UNL d   1      59.462   0.159  30.460  0.00  0.00     0.269 A 
ATOM      7  N   UNL d   1      59.926   0.009  29.799  0.00  0.00    -0.259 N 
ATOM      8  C   UNL d   1      59.645  -0.497  29.196  0.00  0.00     0.140 A 
ATOM      9  C   UNL d   1      58.141  -0.140  31.116  0.00  0.00     0.030 A 
ATOM     10  C   UNL d   1      60.672   0.353  29.725  0.00  0.00     0.084 A 
ATOM     11  O   UNL d   1      59.744   0.660  31.056  0.00  0.00    -0.266 OA
ATOM     12  C   UNL d   1      60.101  -0.649  28.539  0.00  0.00     0.064 A 
ATOM     13  C   UNL d   1      61.130   0.197  29.061  0.00  0.00     0.018 A 
ATOM     14  C   UNL d   1      60.842  -0.309  28.461  0.00  0.00    -0.008 A 
ATOM     15  C   UNL d   1      57.197  -1.457  29.727  0.00  0.00     0.101 C 
ENDROOT
BRANCH   4  16
ATOM     16  C   UNL d   1      56.799  -0.717  31.322  0.00  0.00     0.281 C 
ATOM     17  N   UNL d   1      56.753  -0.458  32.103  0.00  0.00    -0.268 N 
ATOM     18  C   UNL d   1      56.053  -0.567  32.532  0.00  0.00     0.102 A 
ATOM     19  C   UNL d   1      57.398  -0.090  32.459  0.00  0.00     0.102 A 
ATOM     20  C   UNL d   1      56.000  -0.309  33.317  0.00  0.00     0.102 A 
ATOM     21  N   UNL d   1      56.647   0.057  33.667  0.00  0.00    -0.267 N 
ATOM     22  C   UNL d   1      56.597   0.316  34.450  0.00  0.00     0.288 C 
ATOM     23  C   UNL d   1      57.341   0.161  33.228  0.00  0.00     0.102 A 
ATOM     24  O   UNL d   1      57.244   0.682  34.800  0.00  0.00    -0.264 OA
ATOM     25  O   UNL d   1      56.154  -1.084  30.966  0.00  0.00    -0.265 OA
BRANCH  22  26
ATOM     26  C   UNL d   1      55.893   0.201  34.868  0.00  0.00     0.156 A 
ATOM     27  O   UNL d   1      55.736  -0.430  35.377  0.00  0.00    -0.300 OA
ATOM     28  C   UNL d   1      54.983  -0.339  35.678  0.00  0.00     0.123 A 
ATOM     29  C   UNL d   1      54.655   0.352  35.360  0.00  0.00     0.029 A 
ATOM     30  C   UNL d   1      55.223   0.681  34.860  0.00  0.00     0.032 A 
ENDBRANCH  22  26
ENDBRANCH   4  16
TORSDOF 2
ENDMDL
