MODEL 1
REMARK VINA RESULT:      41.3      0.000      0.000
REMARK  4 active torsions:
REMARK  status: ('A' for Active; 'I' for Inactive)
REMARK       I    between atoms: N_3  and  C_1 
REMARK    1  A    between atoms: C_13  and  C_1 
REMARK    2  A    between atoms: C_2  and  N_5 
REMARK    3  A    between atoms: C_14  and  N_3 
REMARK    4  A    between atoms: C_4  and  C_14 
REMARK       I    between atoms: N_5  and  C_4 
ROOT
ATOM      1  C   UNL d   1      14.491  15.681  -3.179  0.00  0.00     0.299 C 
ATOM      2  N   UNL d   1      14.318  15.464  -2.403  0.00  0.00    -0.207 NA
ATOM      3  O   UNL d   1      15.063  16.254  -3.339  0.00  0.00    -0.263 OA
ENDROOT
BRANCH   1   4
ATOM      4  C   UNL d   1      14.088  15.321  -3.803  0.00  0.00     0.165 C 
BRANCH   4   5
ATOM      5  N   UNL d   1      13.887  14.519  -3.754  0.00  0.00    -0.201 NA
ATOM      6  C   UNL d   1      13.487  14.169  -4.388  0.00  0.00     0.279 C 
ATOM      7  O   UNL d   1      13.294  14.614  -5.055  0.00  0.00    -0.265 OA
BRANCH   6   8
ATOM      8  C   UNL d   1      13.280  13.365  -4.349  0.00  0.00     0.058 A 
ATOM      9  C   UNL d   1      13.379  12.946  -3.647  0.00  0.00     0.005 A 
ATOM     10  C   UNL d   1      13.174  12.157  -3.617  0.00  0.00     0.000 A 
ATOM     11  C   UNL d   1      12.868  11.780  -4.284  0.00  0.00     0.000 A 
ATOM     12  C   UNL d   1      12.769  12.191  -4.981  0.00  0.00     0.000 A 
ATOM     13  C   UNL d   1      12.975  12.988  -5.016  0.00  0.00     0.005 A 
ENDBRANCH   6   8
ENDBRANCH   4   5
ENDBRANCH   1   4
BRANCH   2  14
ATOM     14  C   UNL d   1      14.724  15.827  -1.781  0.00  0.00     0.086 A 
ATOM     15  C   UNL d   1      15.057  15.367  -1.183  0.00  0.00     0.031 A 
ATOM     16  C   UNL d   1      15.459  15.741  -0.568  0.00  0.00     0.060 A 
ATOM     17 CL   UNL d   1      15.759  15.254  -0.022  0.00  0.00    -0.082 Cl
ATOM     18  C   UNL d   1      15.531  16.562  -0.545  0.00  0.00     0.023 A 
ATOM     19  C   UNL d   1      15.192  17.017  -1.151  0.00  0.00     0.060 A 
ATOM     20  C   UNL d   1      14.788  16.651  -1.770  0.00  0.00     0.031 A 
ATOM     21 CL   UNL d   1      15.260  17.842  -1.135  0.00  0.00    -0.082 Cl
ENDBRANCH   2  14
TORSDOF 4
ENDMDL
MODEL 2
REMARK VINA RESULT:      43.3      2.848      4.087
REMARK  4 active torsions:
REMARK  status: ('A' for Active; 'I' for Inactive)
REMARK       I    between atoms: N_3  and  C_1 
REMARK    1  A    between atoms: C_13  and  C_1 
REMARK    2  A    between atoms: C_2  and  N_5 
REMARK    3  A    between atoms: C_14  and  N_3 
REMARK    4  A    between atoms: C_4  and  C_14 
REMARK       I    between atoms: N_5  and  C_4 
ROOT
ATOM      1  C   UNL d   1      14.716  14.462  -1.323  0.00  0.00     0.299 C 
ATOM      2  N   UNL d   1      14.692  14.218  -0.537  0.00  0.00    -0.207 NA
ATOM      3  O   UNL d   1      14.721  13.910  -1.936  0.00  0.00    -0.263 OA
ENDROOT
BRANCH   1   4
ATOM      4  C   UNL d   1      14.734  15.268  -1.500  0.00  0.00     0.165 C 
BRANCH   4   5
ATOM      5  N   UNL d   1      14.809  15.515  -2.286  0.00  0.00    -0.201 NA
ATOM      6  C   UNL d   1      14.876  16.324  -2.446  0.00  0.00     0.279 C 
ATOM      7  O   UNL d   1      14.867  16.872  -1.829  0.00  0.00    -0.265 OA
BRANCH   6   8
ATOM      8  C   UNL d   1      14.953  16.582  -3.232  0.00  0.00     0.058 A 
ATOM      9  C   UNL d   1      14.681  16.111  -3.850  0.00  0.00     0.005 A 
ATOM     10  C   UNL d   1      14.759  16.372  -4.620  0.00  0.00     0.000 A 
ATOM     11  C   UNL d   1      15.108  17.102  -4.779  0.00  0.00     0.000 A 
ATOM     12  C   UNL d   1      15.379  17.572  -4.169  0.00  0.00     0.000 A 
ATOM     13  C   UNL d   1      15.302  17.313  -3.391  0.00  0.00     0.005 A 
ENDBRANCH   6   8
ENDBRANCH   4   5
ENDBRANCH   1   4
BRANCH   2  14
ATOM     14  C   UNL d   1      14.674  13.409  -0.364  0.00  0.00     0.086 A 
ATOM     15  C   UNL d   1      13.951  13.022  -0.278  0.00  0.00     0.031 A 
ATOM     16  C   UNL d   1      13.946  12.216  -0.106  0.00  0.00     0.060 A 
ATOM     17 CL   UNL d   1      13.227  11.897  -0.034  0.00  0.00    -0.082 Cl
ATOM     18  C   UNL d   1      14.650  11.797  -0.020  0.00  0.00     0.023 A 
ATOM     19  C   UNL d   1      15.373  12.194  -0.108  0.00  0.00     0.060 A 
ATOM     20  C   UNL d   1      15.387  13.000  -0.280  0.00  0.00     0.031 A 
ATOM     21 CL   UNL d   1      16.085  11.779  -0.023  0.00  0.00    -0.082 Cl
ENDBRANCH   2  14
TORSDOF 4
ENDMDL
