MODEL 1
REMARK VINA RESULT:      25.5      0.000      0.000
REMARK  0 active torsions:
REMARK  status: ('A' for Active; 'I' for Inactive)
REMARK       I    between atoms: C_2  and  N_1 
REMARK       I    between atoms: N_7  and  C_2 
ROOT
ATOM      1  N   UNL d   1      46.032 -17.048  43.893  0.00  0.00    -0.241 N 
ATOM      2  C   UNL d   1      45.981 -16.341  43.429  0.00  0.00     0.341 C 
ATOM      3  C   UNL d   1      46.190 -17.801  43.642  0.00  0.00     0.087 A 
ATOM      4  C   UNL d   1      45.921 -17.064  44.701  0.00  0.00     0.186 A 
ATOM      5  N   UNL d   1      46.014 -17.843  44.951  0.00  0.00    -0.224 NA
ATOM      6  C   UNL d   1      46.181 -18.299  44.290  0.00  0.00     0.099 A 
ATOM      7  N   UNL d   1      45.813 -15.613  43.778  0.00  0.00    -0.257 N 
ATOM      8  C   UNL d   1      46.344 -18.099  42.890  0.00  0.00     0.019 A 
ATOM      9  C   UNL d   1      46.326 -19.111  44.204  0.00  0.00     0.021 A 
ATOM     10  C   UNL d   1      46.488 -18.902  42.801  0.00  0.00     0.002 A 
ATOM     11  C   UNL d   1      46.482 -19.409  43.442  0.00  0.00     0.002 A 
ATOM     12  O   UNL d   1      46.106 -16.405  42.609  0.00  0.00    -0.245 OA
ATOM     13  C   UNL d   1      45.766 -14.943  43.324  0.00  0.00     0.085 A 
ATOM     14  C   UNL d   1      45.690 -15.569  44.602  0.00  0.00     0.085 A 
ATOM     15  C   UNL d   1      46.643 -19.191  42.034  0.00  0.00     0.000 C 
ATOM     16  C   UNL d   1      46.631 -20.230  43.336  0.00  0.00     0.000 C 
ATOM     17  C   UNL d   1      45.598 -14.215  43.674  0.00  0.00     0.019 A 
ATOM     18  C   UNL d   1      45.520 -14.834  44.955  0.00  0.00     0.019 A 
ATOM     19  C   UNL d   1      45.477 -14.160  44.475  0.00  0.00     0.003 A 
ENDROOT
TORSDOF 0
ENDMDL
MODEL 2
REMARK VINA RESULT:      28.1      0.668      3.827
REMARK  0 active torsions:
REMARK  status: ('A' for Active; 'I' for Inactive)
REMARK       I    between atoms: C_2  and  N_1 
REMARK       I    between atoms: N_7  and  C_2 
ROOT
ATOM      1  N   UNL d   1      45.912 -16.512  43.813  0.00  0.00    -0.241 N 
ATOM      2  C   UNL d   1      46.277 -16.903  43.156  0.00  0.00     0.341 C 
ATOM      3  C   UNL d   1      45.854 -15.717  43.954  0.00  0.00     0.087 A 
ATOM      4  C   UNL d   1      45.549 -16.909  44.427  0.00  0.00     0.186 A 
ATOM      5  N   UNL d   1      45.263 -16.346  44.955  0.00  0.00    -0.224 NA
ATOM      6  C   UNL d   1      45.454 -15.605  44.657  0.00  0.00     0.099 A 
ATOM      7  N   UNL d   1      46.286 -17.725  43.100  0.00  0.00    -0.257 N 
ATOM      8  C   UNL d   1      46.121 -15.070  43.520  0.00  0.00     0.019 A 
ATOM      9  C   UNL d   1      45.309 -14.842  44.948  0.00  0.00     0.021 A 
ATOM     10  C   UNL d   1      45.980 -14.314  43.803  0.00  0.00     0.002 A 
ATOM     11  C   UNL d   1      45.580 -14.190  44.507  0.00  0.00     0.002 A 
ATOM     12  O   UNL d   1      46.627 -16.428  42.568  0.00  0.00    -0.245 OA
ATOM     13  C   UNL d   1      46.638 -18.088  42.467  0.00  0.00     0.085 A 
ATOM     14  C   UNL d   1      45.930 -18.183  43.699  0.00  0.00     0.085 A 
ATOM     15  C   UNL d   1      46.255 -13.667  43.354  0.00  0.00     0.000 C 
ATOM     16  C   UNL d   1      45.443 -13.409  44.785  0.00  0.00     0.000 C 
ATOM     17  C   UNL d   1      46.647 -18.911  42.411  0.00  0.00     0.019 A 
ATOM     18  C   UNL d   1      45.939 -19.014  43.643  0.00  0.00     0.019 A 
ATOM     19  C   UNL d   1      46.303 -19.367  42.988  0.00  0.00     0.003 A 
ENDROOT
TORSDOF 0
ENDMDL
