MODEL 1
REMARK VINA RESULT:      -9.0      0.000      0.000
REMARK  6 active torsions:
REMARK  status: ('A' for Active; 'I' for Inactive)
REMARK       I    between atoms: C_6  and  N_1 
REMARK    1  A    between atoms: C_10  and  C_2 
REMARK    2  A    between atoms: O_16  and  C_8 
REMARK    3  A    between atoms: O_14  and  C_10 
REMARK    4  A    between atoms: O_17  and  C_11 
REMARK    5  A    between atoms: C_15  and  O_14 
REMARK    6  A    between atoms: C_24  and  C_18 
ROOT
ATOM      1  N   UNL d   1      53.084  31.709  53.408  0.00  0.00    -0.271 N 
ATOM      2  C   UNL d   1      52.893  32.493  53.579  0.00  0.00     0.092 A 
ATOM      3  C   UNL d   1      53.425  32.961  53.986  0.00  0.00     0.020 A 
ATOM      4  C   UNL d   1      54.151  32.653  54.227  0.00  0.00     0.005 A 
ATOM      5  C   UNL d   1      53.233  33.741  54.155  0.00  0.00     0.028 A 
ATOM      6  C   UNL d   1      52.543  31.227  52.992  0.00  0.00     0.265 C 
ATOM      7  C   UNL d   1      53.810  31.400  53.649  0.00  0.00     0.083 A 
ATOM      8  C   UNL d   1      53.767  34.217  54.566  0.00  0.00     0.116 A 
ATOM      9  C   UNL d   1      54.685  33.124  54.636  0.00  0.00     0.026 A 
ATOM     10  C   UNL d   1      54.493  33.909  54.807  0.00  0.00     0.116 A 
ATOM     11  C   UNL d   1      54.346  31.876  54.060  0.00  0.00     0.019 A 
ATOM     12  O   UNL d   1      51.817  31.535  52.752  0.00  0.00    -0.267 OA
ATOM     13  C   UNL d   1      52.737  30.450  52.825  0.00  0.00     0.066 C 
ENDROOT
BRANCH   2  14
ATOM     14  C   UNL d   1      52.166  32.802  53.339  0.00  0.00     0.140 C 
BRANCH  14  15
ATOM     15  O   UNL d   1      52.133  33.342  52.716  0.00  0.00    -0.304 OA
BRANCH  15  16
ATOM     16  C   UNL d   1      51.420  33.712  52.527  0.00  0.00     0.100 A 
ATOM     17  C   UNL d   1      51.331  34.089  51.799  0.00  0.00     0.025 A 
ATOM     18  C   UNL d   1      50.618  34.458  51.610  0.00  0.00     0.002 A 
ATOM     19  C   UNL d   1      49.993  34.450  52.150  0.00  0.00     0.000 A 
ATOM     20  C   UNL d   1      50.083  34.072  52.879  0.00  0.00     0.002 A 
ATOM     21  C   UNL d   1      50.796  33.703  53.068  0.00  0.00     0.025 A 
BRANCH  19  22
ATOM     22  C   UNL d   1      49.280  34.819  51.962  0.00  0.00     0.000 C 
ATOM     23  C   UNL d   1      48.884  34.621  51.270  0.00  0.00     0.000 C 
ENDBRANCH  19  22
ENDBRANCH  15  16
ENDBRANCH  14  15
ENDBRANCH   2  14
BRANCH   8  24
ATOM     24  O   UNL d   1      53.573  35.008  54.738  0.00  0.00    -0.326 OA
ATOM     25  C   UNL d   1      52.944  35.176  55.246  0.00  0.00     0.181 C 
ENDBRANCH   8  24
BRANCH  10  26
ATOM     26  O   UNL d   1      55.038  34.385  55.222  0.00  0.00    -0.326 OA
ATOM     27  C   UNL d   1      55.820  34.133  55.306  0.00  0.00     0.181 C 
ENDBRANCH  10  26
TORSDOF 6
ENDMDL
MODEL 2
REMARK VINA RESULT:      -8.1      0.976      2.749
REMARK  6 active torsions:
REMARK  status: ('A' for Active; 'I' for Inactive)
REMARK       I    between atoms: C_6  and  N_1 
REMARK    1  A    between atoms: C_10  and  C_2 
REMARK    2  A    between atoms: O_16  and  C_8 
REMARK    3  A    between atoms: O_14  and  C_10 
REMARK    4  A    between atoms: O_17  and  C_11 
REMARK    5  A    between atoms: C_15  and  O_14 
REMARK    6  A    between atoms: C_24  and  C_18 
ROOT
ATOM      1  N   UNL d   1      53.426  33.970  54.311  0.00  0.00    -0.271 N 
ATOM      2  C   UNL d   1      52.893  33.479  53.916  0.00  0.00     0.092 A 
ATOM      3  C   UNL d   1      53.082  32.693  53.790  0.00  0.00     0.020 A 
ATOM      4  C   UNL d   1      53.801  32.390  54.057  0.00  0.00     0.005 A 
ATOM      5  C   UNL d   1      52.551  32.207  53.397  0.00  0.00     0.028 A 
ATOM      6  C   UNL d   1      53.237  34.773  54.442  0.00  0.00     0.265 C 
ATOM      7  C   UNL d   1      54.145  33.667  54.578  0.00  0.00     0.083 A 
ATOM      8  C   UNL d   1      52.737  31.413  53.268  0.00  0.00     0.116 A 
ATOM      9  C   UNL d   1      53.989  31.601  53.931  0.00  0.00     0.026 A 
ATOM     10  C   UNL d   1      53.456  31.110  53.535  0.00  0.00     0.116 A 
ATOM     11  C   UNL d   1      54.332  32.873  54.450  0.00  0.00     0.019 A 
ATOM     12  O   UNL d   1      52.518  35.076  54.174  0.00  0.00    -0.267 OA
ATOM     13  C   UNL d   1      53.769  35.256  54.834  0.00  0.00     0.066 C 
ENDROOT
BRANCH   2  14
ATOM     14  C   UNL d   1      52.174  33.782  53.649  0.00  0.00     0.140 C 
BRANCH  14  15
ATOM     15  O   UNL d   1      52.084  33.995  52.856  0.00  0.00    -0.304 OA
BRANCH  15  16
ATOM     16  C   UNL d   1      51.333  34.151  52.553  0.00  0.00     0.100 A 
ATOM     17  C   UNL d   1      50.690  34.228  53.065  0.00  0.00     0.025 A 
ATOM     18  C   UNL d   1      49.939  34.384  52.762  0.00  0.00     0.002 A 
ATOM     19  C   UNL d   1      49.831  34.464  51.947  0.00  0.00     0.000 A 
ATOM     20  C   UNL d   1      50.474  34.387  51.436  0.00  0.00     0.002 A 
ATOM     21  C   UNL d   1      51.226  34.231  51.739  0.00  0.00     0.025 A 
BRANCH  19  22
ATOM     22  C   UNL d   1      49.079  34.620  51.644  0.00  0.00     0.000 C 
ATOM     23  C   UNL d   1      48.915  34.470  50.853  0.00  0.00     0.000 C 
ENDBRANCH  19  22
ENDBRANCH  15  16
ENDBRANCH  14  15
ENDBRANCH   2  14
BRANCH   8  24
ATOM     24  O   UNL d   1      52.199  30.919  52.869  0.00  0.00    -0.326 OA
ATOM     25  C   UNL d   1      51.535  30.629  53.265  0.00  0.00     0.181 C 
ENDBRANCH   8  24
BRANCH  10  26
ATOM     26  O   UNL d   1      53.650  30.309  53.408  0.00  0.00    -0.326 OA
ATOM     27  C   UNL d   1      54.441  30.074  53.417  0.00  0.00     0.181 C 
ENDBRANCH  10  26
TORSDOF 6
ENDMDL
MODEL 3
REMARK VINA RESULT:      -7.4      1.376      4.379
REMARK  6 active torsions:
REMARK  status: ('A' for Active; 'I' for Inactive)
REMARK       I    between atoms: C_6  and  N_1 
REMARK    1  A    between atoms: C_10  and  C_2 
REMARK    2  A    between atoms: O_16  and  C_8 
REMARK    3  A    between atoms: O_14  and  C_10 
REMARK    4  A    between atoms: O_17  and  C_11 
REMARK    5  A    between atoms: C_15  and  O_14 
REMARK    6  A    between atoms: C_24  and  C_18 
ROOT
ATOM      1  N   UNL d   1      53.800  33.946  54.467  0.00  0.00    -0.271 N 
ATOM      2  C   UNL d   1      53.237  33.408  54.195  0.00  0.00     0.092 A 
ATOM      3  C   UNL d   1      52.588  33.676  53.775  0.00  0.00     0.020 A 
ATOM      4  C   UNL d   1      52.496  34.482  53.623  0.00  0.00     0.005 A 
ATOM      5  C   UNL d   1      52.029  33.139  53.506  0.00  0.00     0.028 A 
ATOM      6  C   UNL d   1      54.464  33.676  54.896  0.00  0.00     0.265 C 
ATOM      7  C   UNL d   1      53.708  34.751  54.314  0.00  0.00     0.083 A 
ATOM      8  C   UNL d   1      51.373  33.405  53.082  0.00  0.00     0.116 A 
ATOM      9  C   UNL d   1      51.844  34.750  53.201  0.00  0.00     0.026 A 
ATOM     10  C   UNL d   1      51.281  34.211  52.930  0.00  0.00     0.116 A 
ATOM     11  C   UNL d   1      53.052  35.019  53.890  0.00  0.00     0.019 A 
ATOM     12  O   UNL d   1      54.557  32.871  55.048  0.00  0.00    -0.267 OA
ATOM     13  C   UNL d   1      55.020  34.214  55.163  0.00  0.00     0.066 C 
ENDROOT
BRANCH   2  14
ATOM     14  C   UNL d   1      53.329  32.602  54.347  0.00  0.00     0.140 C 
BRANCH  14  15
ATOM     15  O   UNL d   1      53.621  32.102  53.759  0.00  0.00    -0.304 OA
BRANCH  15  16
ATOM     16  C   UNL d   1      53.553  31.284  53.843  0.00  0.00     0.100 A 
ATOM     17  C   UNL d   1      53.423  30.955  54.588  0.00  0.00     0.025 A 
ATOM     18  C   UNL d   1      53.356  30.137  54.672  0.00  0.00     0.002 A 
ATOM     19  C   UNL d   1      53.419  29.648  54.010  0.00  0.00     0.000 A 
ATOM     20  C   UNL d   1      53.549  29.977  53.264  0.00  0.00     0.002 A 
ATOM     21  C   UNL d   1      53.616  30.795  53.180  0.00  0.00     0.025 A 
BRANCH  19  22
ATOM     22  C   UNL d   1      53.351  28.830  54.093  0.00  0.00     0.000 C 
ATOM     23  C   UNL d   1      53.390  28.487  54.839  0.00  0.00     0.000 C 
ENDBRANCH  19  22
ENDBRANCH  15  16
ENDBRANCH  14  15
ENDBRANCH   2  14
BRANCH   8  24
ATOM     24  O   UNL d   1      50.806  32.862  52.809  0.00  0.00    -0.326 OA
ATOM     25  C   UNL d   1      50.409  32.376  53.346  0.00  0.00     0.181 C 
ENDBRANCH   8  24
BRANCH  10  26
ATOM     26  O   UNL d   1      50.619  34.486  52.501  0.00  0.00    -0.326 OA
ATOM     27  C   UNL d   1      50.090  35.009  52.860  0.00  0.00     0.181 C 
ENDBRANCH  10  26
TORSDOF 6
ENDMDL
MODEL 4
REMARK VINA RESULT:      -6.5      1.105      3.430
REMARK  6 active torsions:
REMARK  status: ('A' for Active; 'I' for Inactive)
REMARK       I    between atoms: C_6  and  N_1 
REMARK    1  A    between atoms: C_10  and  C_2 
REMARK    2  A    between atoms: O_16  and  C_8 
REMARK    3  A    between atoms: O_14  and  C_10 
REMARK    4  A    between atoms: O_17  and  C_11 
REMARK    5  A    between atoms: C_15  and  O_14 
REMARK    6  A    between atoms: C_24  and  C_18 
ROOT
ATOM      1  N   UNL d   1      52.038  33.974  52.945  0.00  0.00    -0.271 N 
ATOM      2  C   UNL d   1      52.445  33.423  53.406  0.00  0.00     0.092 A 
ATOM      3  C   UNL d   1      53.060  33.669  53.884  0.00  0.00     0.020 A 
ATOM      4  C   UNL d   1      53.276  34.465  53.908  0.00  0.00     0.005 A 
ATOM      5  C   UNL d   1      53.464  33.119  54.341  0.00  0.00     0.028 A 
ATOM      6  C   UNL d   1      51.409  33.727  52.455  0.00  0.00     0.265 C 
ATOM      7  C   UNL d   1      52.254  34.770  52.969  0.00  0.00     0.083 A 
ATOM      8  C   UNL d   1      54.086  33.363  54.825  0.00  0.00     0.116 A 
ATOM      9  C   UNL d   1      53.895  34.711  54.389  0.00  0.00     0.026 A 
ATOM     10  C   UNL d   1      54.301  34.159  54.849  0.00  0.00     0.116 A 
ATOM     11  C   UNL d   1      52.876  35.015  53.453  0.00  0.00     0.019 A 
ATOM     12  O   UNL d   1      51.193  32.931  52.431  0.00  0.00    -0.267 OA
ATOM     13  C   UNL d   1      51.009  34.277  52.000  0.00  0.00     0.066 C 
ENDROOT
BRANCH   2  14
ATOM     14  C   UNL d   1      52.230  32.627  53.382  0.00  0.00     0.140 C 
BRANCH  14  15
ATOM     15  O   UNL d   1      52.592  32.117  52.843  0.00  0.00    -0.304 OA
BRANCH  15  16
ATOM     16  C   UNL d   1      52.677  31.317  53.025  0.00  0.00     0.100 A 
ATOM     17  C   UNL d   1      53.373  30.921  52.827  0.00  0.00     0.025 A 
ATOM     18  C   UNL d   1      53.457  30.120  53.009  0.00  0.00     0.002 A 
ATOM     19  C   UNL d   1      52.846  29.717  53.389  0.00  0.00     0.000 A 
ATOM     20  C   UNL d   1      52.150  30.114  53.587  0.00  0.00     0.002 A 
ATOM     21  C   UNL d   1      52.065  30.914  53.405  0.00  0.00     0.025 A 
BRANCH  19  22
ATOM     22  C   UNL d   1      52.930  28.916  53.571  0.00  0.00     0.000 C 
ATOM     23  C   UNL d   1      53.271  28.690  54.284  0.00  0.00     0.000 C 
ENDBRANCH  19  22
ENDBRANCH  15  16
ENDBRANCH  14  15
ENDBRANCH   2  14
BRANCH   8  24
ATOM     24  O   UNL d   1      54.495  32.807  55.289  0.00  0.00    -0.326 OA
ATOM     25  C   UNL d   1      54.105  32.417  55.904  0.00  0.00     0.181 C 
ENDBRANCH   8  24
BRANCH  10  26
ATOM     26  O   UNL d   1      54.929  34.412  55.337  0.00  0.00    -0.326 OA
ATOM     27  C   UNL d   1      55.649  34.630  54.996  0.00  0.00     0.181 C 
ENDBRANCH  10  26
TORSDOF 6
ENDMDL
