MODEL 1
REMARK VINA RESULT:      -5.5      0.000      0.000
REMARK  5 active torsions:
REMARK  status: ('A' for Active; 'I' for Inactive)
REMARK       I    between atoms: C_2  and  N_1 
REMARK    1  A    between atoms: C_3  and  N_1 
REMARK    2  A    between atoms: C_9  and  C_2 
REMARK    3  A    between atoms: N_6  and  C_3 
REMARK    4  A    between atoms: C_4  and  C_13 
REMARK    5  A    between atoms: C_13  and  N_6 
ROOT
ATOM      1  N   UNL d   1      57.370  -0.458  30.958  0.00  0.00    -0.299 N 
ATOM      2  C   UNL d   1      57.326  -0.090  31.693  0.00  0.00     0.259 C 
ATOM      3  O   UNL d   1      57.911   0.447  31.924  0.00  0.00    -0.267 OA
ATOM      4  H   UNL d   1      56.785  -0.996  30.728  0.00  0.00     0.171 HD
ENDROOT
BRANCH   1   5
ATOM      5  C   UNL d   1      57.983  -0.300  30.454  0.00  0.00     0.179 C 
ATOM      6  S   UNL d   1      58.080   0.468  30.164  0.00  0.00    -0.040 SA
BRANCH   5   7
ATOM      7  N   UNL d   1      58.487  -0.888  30.242  0.00  0.00    -0.329 N 
ATOM      8  H   UNL d   1      58.967  -1.226  30.801  0.00  0.00     0.168 HD
BRANCH   7   9
ATOM      9  C   UNL d   1      58.510  -1.135  29.477  0.00  0.00     0.099 C 
BRANCH   9  10
ATOM     10  C   UNL d   1      58.939  -1.816  29.278  0.00  0.00     0.117 A 
ATOM     11  O   UNL d   1      58.569  -2.544  29.333  0.00  0.00    -0.304 OA
ATOM     12  C   UNL d   1      59.114  -3.110  29.107  0.00  0.00     0.123 A 
ATOM     13  C   UNL d   1      59.812  -2.721  28.916  0.00  0.00     0.029 A 
ATOM     14  C   UNL d   1      59.687  -1.922  29.028  0.00  0.00     0.028 A 
ENDBRANCH   9  10
ENDBRANCH   7   9
ENDBRANCH   5   7
ENDBRANCH   1   5
BRANCH   2  15
ATOM     15  C   UNL d   1      56.696  -0.258  32.203  0.00  0.00     0.056 A 
ATOM     16  C   UNL d   1      56.257   0.360  32.533  0.00  0.00     0.005 A 
ATOM     17  C   UNL d   1      55.623   0.189  33.046  0.00  0.00     0.000 A 
ATOM     18  C   UNL d   1      55.435  -0.592  33.224  0.00  0.00     0.000 A 
ATOM     19  C   UNL d   1      55.874  -1.210  32.894  0.00  0.00     0.000 A 
ATOM     20  C   UNL d   1      56.501  -1.046  32.387  0.00  0.00     0.005 A 
ENDBRANCH   2  15
TORSDOF 5
ENDMDL
MODEL 2
REMARK VINA RESULT:      -4.8      0.835      4.324
REMARK  5 active torsions:
REMARK  status: ('A' for Active; 'I' for Inactive)
REMARK       I    between atoms: C_2  and  N_1 
REMARK    1  A    between atoms: C_3  and  N_1 
REMARK    2  A    between atoms: C_9  and  C_2 
REMARK    3  A    between atoms: N_6  and  C_3 
REMARK    4  A    between atoms: C_4  and  C_13 
REMARK    5  A    between atoms: C_13  and  N_6 
ROOT
ATOM      1  N   UNL d   1      58.425  -0.733  30.364  0.00  0.00    -0.299 N 
ATOM      2  C   UNL d   1      58.502  -0.834  29.551  0.00  0.00     0.259 C 
ATOM      3  O   UNL d   1      58.090  -0.341  29.031  0.00  0.00    -0.267 OA
ATOM      4  H   UNL d   1      58.837  -1.225  30.885  0.00  0.00     0.171 HD
ENDROOT
BRANCH   1   5
ATOM      5  C   UNL d   1      57.946  -0.152  30.664  0.00  0.00     0.179 C 
ATOM      6  S   UNL d   1      58.140   0.641  30.531  0.00  0.00    -0.040 SA
BRANCH   5   7
ATOM      7  N   UNL d   1      57.292  -0.352  31.084  0.00  0.00    -0.329 N 
ATOM      8  H   UNL d   1      56.683  -0.743  30.719  0.00  0.00     0.168 HD
BRANCH   7   9
ATOM      9  C   UNL d   1      57.248  -0.163  31.865  0.00  0.00     0.099 C 
BRANCH   9  10
ATOM     10  C   UNL d   1      56.618  -0.448  32.322  0.00  0.00     0.117 A 
ATOM     11  O   UNL d   1      56.580  -1.249  32.486  0.00  0.00    -0.304 OA
ATOM     12  C   UNL d   1      55.911  -1.370  32.939  0.00  0.00     0.123 A 
ATOM     13  C   UNL d   1      55.546  -0.642  33.048  0.00  0.00     0.029 A 
ATOM     14  C   UNL d   1      55.996  -0.082  32.660  0.00  0.00     0.028 A 
ENDBRANCH   9  10
ENDBRANCH   7   9
ENDBRANCH   5   7
ENDBRANCH   1   5
BRANCH   2  15
ATOM     15  C   UNL d   1      58.994  -1.430  29.253  0.00  0.00     0.056 A 
ATOM     16  C   UNL d   1      59.732  -1.236  28.936  0.00  0.00     0.005 A 
ATOM     17  C   UNL d   1      60.225  -1.837  28.637  0.00  0.00     0.000 A 
ATOM     18  C   UNL d   1      59.978  -2.622  28.657  0.00  0.00     0.000 A 
ATOM     19  C   UNL d   1      59.239  -2.816  28.974  0.00  0.00     0.000 A 
ATOM     20  C   UNL d   1      58.749  -2.226  29.271  0.00  0.00     0.005 A 
ENDBRANCH   2  15
TORSDOF 5
ENDMDL
MODEL 3
REMARK VINA RESULT:      -4.5      0.893      1.274
REMARK  5 active torsions:
REMARK  status: ('A' for Active; 'I' for Inactive)
REMARK       I    between atoms: C_2  and  N_1 
REMARK    1  A    between atoms: C_3  and  N_1 
REMARK    2  A    between atoms: C_9  and  C_2 
REMARK    3  A    between atoms: N_6  and  C_3 
REMARK    4  A    between atoms: C_4  and  C_13 
REMARK    5  A    between atoms: C_13  and  N_6 
ROOT
ATOM      1  N   UNL d   1      58.168  -0.524  30.597  0.00  0.00    -0.299 N 
ATOM      2  C   UNL d   1      57.500  -0.073  30.765  0.00  0.00     0.259 C 
ATOM      3  O   UNL d   1      57.135   0.366  30.166  0.00  0.00    -0.267 OA
ATOM      4  H   UNL d   1      58.533  -0.963  31.196  0.00  0.00     0.171 HD
ENDROOT
BRANCH   1   5
ATOM      5  C   UNL d   1      58.474  -0.545  29.848  0.00  0.00     0.179 C 
ATOM      6  S   UNL d   1      58.738   0.157  29.499  0.00  0.00    -0.040 SA
BRANCH   5   7
ATOM      7  N   UNL d   1      58.516  -1.244  29.454  0.00  0.00    -0.329 N 
ATOM      8  H   UNL d   1      57.839  -1.593  29.180  0.00  0.00     0.168 HD
BRANCH   7   9
ATOM      9  C   UNL d   1      59.233  -1.589  29.336  0.00  0.00     0.099 C 
BRANCH   9  10
ATOM     10  C   UNL d   1      59.272  -2.358  29.027  0.00  0.00     0.117 A 
ATOM     11  O   UNL d   1      59.977  -2.770  29.083  0.00  0.00    -0.304 OA
ATOM     12  C   UNL d   1      59.857  -3.501  28.739  0.00  0.00     0.123 A 
ATOM     13  C   UNL d   1      59.079  -3.529  28.476  0.00  0.00     0.029 A 
ATOM     14  C   UNL d   1      58.731  -2.815  28.662  0.00  0.00     0.028 A 
ENDBRANCH   9  10
ENDBRANCH   7   9
ENDBRANCH   5   7
ENDBRANCH   1   5
BRANCH   2  15
ATOM     15  C   UNL d   1      57.194  -0.057  31.534  0.00  0.00     0.056 A 
ATOM     16  C   UNL d   1      56.747  -0.695  31.813  0.00  0.00     0.005 A 
ATOM     17  C   UNL d   1      56.440  -0.677  32.587  0.00  0.00     0.000 A 
ATOM     18  C   UNL d   1      56.580  -0.027  33.072  0.00  0.00     0.000 A 
ATOM     19  C   UNL d   1      57.027   0.611  32.793  0.00  0.00     0.000 A 
ATOM     20  C   UNL d   1      57.333   0.598  32.029  0.00  0.00     0.005 A 
ENDBRANCH   2  15
TORSDOF 5
ENDMDL
MODEL 4
REMARK VINA RESULT:      -3.6      1.395      1.596
REMARK  5 active torsions:
REMARK  status: ('A' for Active; 'I' for Inactive)
REMARK       I    between atoms: C_2  and  N_1 
REMARK    1  A    between atoms: C_3  and  N_1 
REMARK    2  A    between atoms: C_9  and  C_2 
REMARK    3  A    between atoms: N_6  and  C_3 
REMARK    4  A    between atoms: C_4  and  C_13 
REMARK    5  A    between atoms: C_13  and  N_6 
ROOT
ATOM      1  N   UNL d   1      57.705  -0.110  31.250  0.00  0.00    -0.299 N 
ATOM      2  C   UNL d   1      56.953   0.148  31.463  0.00  0.00     0.259 C 
ATOM      3  O   UNL d   1      56.545   0.682  30.981  0.00  0.00    -0.267 OA
ATOM      4  H   UNL d   1      58.113  -0.643  31.732  0.00  0.00     0.171 HD
ENDROOT
BRANCH   1   5
ATOM      5  C   UNL d   1      58.053   0.155  30.568  0.00  0.00     0.179 C 
ATOM      6  S   UNL d   1      57.631   0.659  30.068  0.00  0.00    -0.040 SA
BRANCH   5   7
ATOM      7  N   UNL d   1      58.802  -0.075  30.388  0.00  0.00    -0.329 N 
ATOM      8  H   UNL d   1      59.259  -0.434  30.952  0.00  0.00     0.168 HD
BRANCH   7   9
ATOM      9  C   UNL d   1      59.089   0.055  29.648  0.00  0.00     0.099 C 
BRANCH   9  10
ATOM     10  C   UNL d   1      59.879  -0.130  29.476  0.00  0.00     0.117 A 
ATOM     11  O   UNL d   1      60.406   0.481  29.339  0.00  0.00    -0.304 OA
ATOM     12  C   UNL d   1      61.133   0.141  29.186  0.00  0.00     0.123 A 
ATOM     13  C   UNL d   1      61.043  -0.674  29.230  0.00  0.00     0.029 A 
ATOM     14  C   UNL d   1      60.261  -0.825  29.411  0.00  0.00     0.028 A 
ENDBRANCH   9  10
ENDBRANCH   7   9
ENDBRANCH   5   7
ENDBRANCH   1   5
BRANCH   2  15
ATOM     15  C   UNL d   1      56.604  -0.127  32.162  0.00  0.00     0.056 A 
ATOM     16  C   UNL d   1      56.460   0.397  32.785  0.00  0.00     0.005 A 
ATOM     17  C   UNL d   1      56.109   0.117  33.487  0.00  0.00     0.000 A 
ATOM     18  C   UNL d   1      55.906  -0.677  33.560  0.00  0.00     0.000 A 
ATOM     19  C   UNL d   1      56.050  -1.201  32.936  0.00  0.00     0.000 A 
ATOM     20  C   UNL d   1      56.397  -0.930  32.241  0.00  0.00     0.005 A 
ENDBRANCH   2  15
TORSDOF 5
ENDMDL
