MODEL 1
REMARK VINA RESULT:      -5.7      0.000      0.000
REMARK  2 active torsions:
REMARK  status: ('A' for Active; 'I' for Inactive)
REMARK    1  A    between atoms: C_3  and  C_1 
REMARK       I    between atoms: C_2  and  N_4 
REMARK    2  A    between atoms: N_4  and  C_7 
ROOT
ATOM      1  C   UNL d   1      55.528  -0.197  33.223  0.00  0.00     0.073 A 
ATOM      2  C   UNL d   1      55.910   0.157  32.580  0.00  0.00     0.024 A 
ATOM      3  C   UNL d   1      56.376  -0.300  32.076  0.00  0.00     0.100 A 
ATOM      4  C   UNL d   1      55.612  -1.005  33.359  0.00  0.00     0.004 A 
ATOM      5  C   UNL d   1      56.078  -1.462  32.855  0.00  0.00     0.002 A 
ATOM      6  C   UNL d   1      56.459  -1.111  32.214  0.00  0.00     0.020 A 
ENDROOT
BRANCH   1   7
ATOM      7  C   UNL d   1      55.057   0.265  33.732  0.00  0.00     0.419 C 
ATOM      8  F   UNL d   1      54.634   0.681  34.191  0.00  0.00    -0.166 F 
ATOM      9  F   UNL d   1      54.250   0.547  33.618  0.00  0.00    -0.166 F 
ATOM     10  F   UNL d   1      55.249   0.584  34.506  0.00  0.00    -0.166 F 
ENDBRANCH   1   7
BRANCH   3  11
ATOM     11  N   UNL d   1      56.759   0.047  31.433  0.00  0.00    -0.056 NA
ATOM     12  C   UNL d   1      57.524   0.332  31.516  0.00  0.00     0.787 C 
ATOM     13  N   UNL d   1      57.910   0.679  30.878  0.00  0.00     0.064 N 
ATOM     14  N   UNL d   1      57.905   0.268  32.244  0.00  0.00     0.064 N 
ENDBRANCH   3  11
TORSDOF 2
ENDMDL
MODEL 2
REMARK VINA RESULT:      -4.9      1.412      1.802
REMARK  2 active torsions:
REMARK  status: ('A' for Active; 'I' for Inactive)
REMARK    1  A    between atoms: C_3  and  C_1 
REMARK       I    between atoms: C_2  and  N_4 
REMARK    2  A    between atoms: N_4  and  C_7 
ROOT
ATOM      1  C   UNL d   1      56.451  -0.424  32.594  0.00  0.00     0.073 A 
ATOM      2  C   UNL d   1      56.571  -0.190  31.810  0.00  0.00     0.024 A 
ATOM      3  C   UNL d   1      57.156   0.363  31.632  0.00  0.00     0.100 A 
ATOM      4  C   UNL d   1      56.915  -0.106  33.196  0.00  0.00     0.004 A 
ATOM      5  C   UNL d   1      57.500   0.447  33.017  0.00  0.00     0.002 A 
ATOM      6  C   UNL d   1      57.622   0.682  32.237  0.00  0.00     0.020 A 
ENDROOT
BRANCH   1   7
ATOM      7  C   UNL d   1      55.860  -0.983  32.774  0.00  0.00     0.419 C 
ATOM      8  F   UNL d   1      55.328  -1.486  32.937  0.00  0.00    -0.166 F 
ATOM      9  F   UNL d   1      55.027  -0.851  32.956  0.00  0.00    -0.166 F 
ATOM     10  F   UNL d   1      55.921  -1.838  32.827  0.00  0.00    -0.166 F 
ENDBRANCH   1   7
BRANCH   3  11
ATOM     11  N   UNL d   1      57.281   0.601  30.852  0.00  0.00    -0.056 NA
ATOM     12  C   UNL d   1      57.825   0.206  30.383  0.00  0.00     0.787 C 
ATOM     13  N   UNL d   1      57.953   0.440  29.605  0.00  0.00     0.064 N 
ATOM     14  N   UNL d   1      58.246  -0.430  30.697  0.00  0.00     0.064 N 
ENDBRANCH   3  11
TORSDOF 2
ENDMDL
MODEL 3
REMARK VINA RESULT:      -4.3      8.837      9.518
REMARK  2 active torsions:
REMARK  status: ('A' for Active; 'I' for Inactive)
REMARK    1  A    between atoms: C_3  and  C_1 
REMARK       I    between atoms: C_2  and  N_4 
REMARK    2  A    between atoms: N_4  and  C_7 
ROOT
ATOM      1  C   UNL d   1      59.598  -7.883  35.790  0.00  0.00     0.073 A 
ATOM      2  C   UNL d   1      59.982  -8.170  35.116  0.00  0.00     0.024 A 
ATOM      3  C   UNL d   1      60.032  -8.983  34.986  0.00  0.00     0.100 A 
ATOM      4  C   UNL d   1      59.265  -8.408  36.330  0.00  0.00     0.004 A 
ATOM      5  C   UNL d   1      59.314  -9.221  36.200  0.00  0.00     0.002 A 
ATOM      6  C   UNL d   1      59.697  -9.510  35.530  0.00  0.00     0.020 A 
ENDROOT
BRANCH   1   7
ATOM      7  C   UNL d   1      59.547  -7.062  35.921  0.00  0.00     0.419 C 
ATOM      8  F   UNL d   1      59.502  -6.323  36.039  0.00  0.00    -0.166 F 
ATOM      9  F   UNL d   1      60.102  -6.544  36.330  0.00  0.00    -0.166 F 
ATOM     10  F   UNL d   1      58.931  -6.512  35.684  0.00  0.00    -0.166 F 
ENDBRANCH   1   7
BRANCH   3  11
ATOM     11  N   UNL d   1      60.414  -9.276  34.316  0.00  0.00    -0.056 NA
ATOM     12  C   UNL d   1      59.979  -9.499  33.659  0.00  0.00     0.787 C 
ATOM     13  N   UNL d   1      60.356  -9.792  32.989  0.00  0.00     0.064 N 
ATOM     14  N   UNL d   1      59.157  -9.429  33.673  0.00  0.00     0.064 N 
ENDBRANCH   3  11
TORSDOF 2
ENDMDL
MODEL 4
REMARK VINA RESULT:      -4.2      2.598      3.206
REMARK  2 active torsions:
REMARK  status: ('A' for Active; 'I' for Inactive)
REMARK    1  A    between atoms: C_3  and  C_1 
REMARK       I    between atoms: C_2  and  N_4 
REMARK    2  A    between atoms: N_4  and  C_7 
ROOT
ATOM      1  C   UNL d   1      56.701  -0.219  32.427  0.00  0.00     0.073 A 
ATOM      2  C   UNL d   1      55.915  -0.046  32.615  0.00  0.00     0.024 A 
ATOM      3  C   UNL d   1      55.742   0.404  33.284  0.00  0.00     0.100 A 
ATOM      4  C   UNL d   1      57.311   0.058  32.906  0.00  0.00     0.004 A 
ATOM      5  C   UNL d   1      57.138   0.508  33.575  0.00  0.00     0.002 A 
ATOM      6  C   UNL d   1      56.355   0.682  33.765  0.00  0.00     0.020 A 
ENDROOT
BRANCH   1   7
ATOM      7  C   UNL d   1      56.876  -0.674  31.751  0.00  0.00     0.419 C 
ATOM      8  F   UNL d   1      57.033  -1.084  31.143  0.00  0.00    -0.166 F 
ATOM      9  F   UNL d   1      57.387  -0.480  31.084  0.00  0.00    -0.166 F 
ATOM     10  F   UNL d   1      56.594  -1.458  31.538  0.00  0.00    -0.166 F 
ENDBRANCH   1   7
BRANCH   3  11
ATOM     11  N   UNL d   1      54.959   0.580  33.478  0.00  0.00    -0.056 NA
ATOM     12  C   UNL d   1      54.701   0.507  34.252  0.00  0.00     0.787 C 
ATOM     13  N   UNL d   1      53.921   0.681  34.449  0.00  0.00     0.064 N 
ATOM     14  N   UNL d   1      55.228   0.256  34.835  0.00  0.00     0.064 N 
ENDBRANCH   3  11
TORSDOF 2
ENDMDL
MODEL 5
REMARK VINA RESULT:      -3.2      2.748      3.529
REMARK  2 active torsions:
REMARK  status: ('A' for Active; 'I' for Inactive)
REMARK    1  A    between atoms: C_3  and  C_1 
REMARK       I    between atoms: C_2  and  N_4 
REMARK    2  A    between atoms: N_4  and  C_7 
ROOT
ATOM      1  C   UNL d   1      57.634   0.119  31.138  0.00  0.00     0.073 A 
ATOM      2  C   UNL d   1      57.008  -0.282  31.501  0.00  0.00     0.024 A 
ATOM      3  C   UNL d   1      56.882  -0.199  32.312  0.00  0.00     0.100 A 
ATOM      4  C   UNL d   1      58.132   0.599  31.585  0.00  0.00     0.004 A 
ATOM      5  C   UNL d   1      58.006   0.682  32.396  0.00  0.00     0.002 A 
ATOM      6  C   UNL d   1      57.383   0.284  32.760  0.00  0.00     0.020 A 
ENDROOT
BRANCH   1   7
ATOM      7  C   UNL d   1      57.761   0.035  30.319  0.00  0.00     0.419 C 
ATOM      8  F   UNL d   1      57.876  -0.041  29.582  0.00  0.00    -0.166 F 
ATOM      9  F   UNL d   1      57.533   0.565  29.678  0.00  0.00    -0.166 F 
ATOM     10  F   UNL d   1      58.153  -0.601  29.894  0.00  0.00    -0.166 F 
ENDBRANCH   1   7
BRANCH   3  11
ATOM     11  N   UNL d   1      56.259  -0.595  32.680  0.00  0.00    -0.056 NA
ATOM     12  C   UNL d   1      55.632  -0.173  32.995  0.00  0.00     0.787 C 
ATOM     13  N   UNL d   1      55.009  -0.564  33.363  0.00  0.00     0.064 N 
ATOM     14  N   UNL d   1      55.628   0.651  32.941  0.00  0.00     0.064 N 
ENDBRANCH   3  11
TORSDOF 2
ENDMDL
MODEL 6
REMARK VINA RESULT:      -2.7      4.281      5.177
REMARK  2 active torsions:
REMARK  status: ('A' for Active; 'I' for Inactive)
REMARK    1  A    between atoms: C_3  and  C_1 
REMARK       I    between atoms: C_2  and  N_4 
REMARK    2  A    between atoms: N_4  and  C_7 
ROOT
ATOM      1  C   UNL d   1      59.007  -1.809  29.146  0.00  0.00     0.073 A 
ATOM      2  C   UNL d   1      58.448  -1.431  29.624  0.00  0.00     0.024 A 
ATOM      3  C   UNL d   1      58.372  -0.610  29.597  0.00  0.00     0.100 A 
ATOM      4  C   UNL d   1      59.487  -1.367  28.644  0.00  0.00     0.004 A 
ATOM      5  C   UNL d   1      59.411  -0.546  28.616  0.00  0.00     0.002 A 
ATOM      6  C   UNL d   1      58.855  -0.167  29.092  0.00  0.00     0.020 A 
ENDROOT
BRANCH   1   7
ATOM      7  C   UNL d   1      59.084  -2.638  29.174  0.00  0.00     0.419 C 
ATOM      8  F   UNL d   1      59.154  -3.384  29.198  0.00  0.00    -0.166 F 
ATOM      9  F   UNL d   1      59.699  -3.113  29.548  0.00  0.00    -0.166 F 
ATOM     10  F   UNL d   1      58.573  -3.241  28.837  0.00  0.00    -0.166 F 
ENDBRANCH   1   7
BRANCH   3  11
ATOM     11  N   UNL d   1      57.816  -0.227  30.072  0.00  0.00    -0.056 NA
ATOM     12  C   UNL d   1      58.062   0.298  30.651  0.00  0.00     0.787 C 
ATOM     13  N   UNL d   1      57.512   0.682  31.126  0.00  0.00     0.064 N 
ATOM     14  N   UNL d   1      58.868   0.440  30.755  0.00  0.00     0.064 N 
ENDBRANCH   3  11
TORSDOF 2
ENDMDL
