MODEL 1
REMARK VINA RESULT:      87.7      0.000      0.000
REMARK  3 active torsions:
REMARK  status: ('A' for Active; 'I' for Inactive)
REMARK    1  A    between atoms: C_9  and  C_1 
REMARK       I    between atoms: N_12  and  C_9 
REMARK    2  A    between atoms: C_16  and  N_12 
REMARK    3  A    between atoms: C_17  and  C_16 
ROOT
ATOM      1  C   UNL d   1      60.411  48.201  50.645  0.00  0.00     0.108 A 
ATOM      2  C   UNL d   1      61.256  47.330  50.110  0.00  0.00     0.044 A 
ATOM      3  C   UNL d   1      60.784  46.919  50.698  0.00  0.00     0.112 A 
ATOM      4  S   UNL d   1      60.257  47.469  51.029  0.00  0.00    -0.061 SA
ATOM      5  C   UNL d   1      61.008  48.121  50.095  0.00  0.00     0.116 A 
ATOM      6  N   UNL d   1      60.907  46.130  50.833  0.00  0.00    -0.239 NA
ATOM      7  C   UNL d   1      61.938  46.120  49.842  0.00  0.00     0.057 A 
ATOM      8  C   UNL d   1      61.821  46.924  49.696  0.00  0.00     0.008 A 
ATOM      9  C   UNL d   1      61.486  45.728  50.404  0.00  0.00     0.085 A 
ATOM     10  C   UNL d   1      62.520  45.713  49.412  0.00  0.00     0.197 A 
ATOM     11  N   UNL d   1      61.307  48.744  49.606  0.00  0.00    -0.147 N 
ATOM     12  O   UNL d   1      62.979  46.112  48.841  0.00  0.00    -0.286 OA
ATOM     13  C   UNL d   1      61.606  44.919  50.549  0.00  0.00     0.019 A 
ATOM     14  C   UNL d   1      62.647  44.918  49.545  0.00  0.00     0.042 A 
ATOM     15  C   UNL d   1      62.175  44.508  50.132  0.00  0.00     0.005 A 
ENDROOT
BRANCH   1  16
ATOM     16  C   UNL d   1      60.013  48.917  50.798  0.00  0.00     0.287 C 
ATOM     17  N   UNL d   1      59.210  48.957  50.625  0.00  0.00    -0.206 NA
ATOM     18  O   UNL d   1      60.397  49.571  51.110  0.00  0.00    -0.265 OA
BRANCH  17  19
ATOM     19  C   UNL d   1      58.797  49.665  50.772  0.00  0.00     0.102 C 
BRANCH  19  20
ATOM     20  C   UNL d   1      57.975  49.676  50.754  0.00  0.00     0.019 A 
ATOM     21  C   UNL d   1      57.547  49.668  51.459  0.00  0.00     0.002 A 
ATOM     22  C   UNL d   1      56.723  49.678  51.436  0.00  0.00     0.000 A 
ATOM     23  C   UNL d   1      56.327  49.697  50.723  0.00  0.00     0.000 A 
ATOM     24  C   UNL d   1      56.747  49.706  50.017  0.00  0.00     0.000 A 
ATOM     25  C   UNL d   1      57.574  49.695  50.031  0.00  0.00     0.002 A 
ENDBRANCH  19  20
ENDBRANCH  17  19
ENDBRANCH   1  16
TORSDOF 3
ENDMDL
