MODEL 1
REMARK VINA RESULT:       7.6      0.000      0.000
REMARK  5 active torsions:
REMARK  status: ('A' for Active; 'I' for Inactive)
REMARK    1  A    between atoms: N_10  and  C_4 
REMARK    2  A    between atoms: C_20  and  N_5 
REMARK    3  A    between atoms: C_12  and  S_19 
REMARK    4  A    between atoms: S_19  and  C_23 
REMARK    5  A    between atoms: C_23  and  C_20 
ROOT
ATOM      1  C   UNL d   1     -41.387-120.525 -52.861  0.00  0.00     0.191 A 
ATOM      2  C   UNL d   1     -41.321-121.034 -52.215  0.00  0.00     0.174 A 
ATOM      3  N   UNL d   1     -41.515-120.984 -53.531  0.00  0.00    -0.042 NA
ATOM      4  C   UNL d   1     -41.528-121.768 -53.306  0.00  0.00     0.722 A 
ATOM      5  N   UNL d   1     -41.408-121.807 -52.488  0.00  0.00    -0.132 N 
ATOM      6  N   UNL d   1     -41.321-119.710 -52.751  0.00  0.00    -0.239 N 
ATOM      7  C   UNL d   1     -41.189-119.403 -51.996  0.00  0.00     0.358 A 
ATOM      8  N   UNL d   1     -41.123-119.912 -51.351  0.00  0.00    -0.152 NA
ATOM      9  C   UNL d   1     -41.189-120.727 -51.460  0.00  0.00     0.303 A 
ATOM     10  O   UNL d   1     -41.124-118.586 -51.891  0.00  0.00    -0.244 OA
ATOM     11  O   UNL d   1     -41.123-121.236 -50.815  0.00  0.00    -0.263 OA
ATOM     12  C   UNL d   1     -41.386-119.206 -53.390  0.00  0.00     0.105 C 
ENDROOT
BRANCH   5  13
ATOM     13  C   UNL d   1     -41.380-122.494 -52.025  0.00  0.00     0.105 C 
BRANCH  13  14
ATOM     14  C   UNL d   1     -41.936-122.611 -51.421  0.00  0.00     0.058 C 
BRANCH  14  15
ATOM     15  S   UNL d   1     -42.040-123.375 -51.097  0.00  0.00    -0.041 SA
BRANCH  15  16
ATOM     16  C   UNL d   1     -42.160-123.452 -50.282  0.00  0.00     0.215 A 
ATOM     17  N   UNL d   1     -42.905-123.610 -49.982  0.00  0.00    -0.214 NA
ATOM     18  C   UNL d   1     -42.849-123.655 -49.173  0.00  0.00     0.107 A 
ATOM     19  C   UNL d   1     -43.429-123.801 -48.597  0.00  0.00     0.021 A 
ATOM     20  C   UNL d   1     -42.081-123.528 -48.953  0.00  0.00     0.120 A 
ATOM     21  C   UNL d   1     -43.216-123.816 -47.796  0.00  0.00     0.002 A 
ATOM     22  C   UNL d   1     -42.447-123.689 -47.579  0.00  0.00     0.002 A 
ATOM     23  C   UNL d   1     -41.877-123.545 -48.160  0.00  0.00     0.026 A 
ATOM     24  O   UNL d   1     -41.642-123.400 -49.650  0.00  0.00    -0.283 OA
ENDBRANCH  15  16
ENDBRANCH  14  15
ENDBRANCH  13  14
ENDBRANCH   5  13
BRANCH   4  25
ATOM     25  N   UNL d   1     -41.645-122.386 -53.834  0.00  0.00    -0.139 N 
ATOM     26  C   UNL d   1     -42.186-122.304 -54.447  0.00  0.00     0.098 A 
ATOM     27  C   UNL d   1     -42.310-122.921 -54.982  0.00  0.00     0.018 A 
ATOM     28  C   UNL d   1     -42.852-122.858 -55.608  0.00  0.00     0.002 C 
ATOM     29  C   UNL d   1     -41.888-123.621 -54.901  0.00  0.00     0.003 A 
ATOM     30  C   UNL d   1     -41.341-123.711 -54.287  0.00  0.00     0.020 A 
ATOM     31  C   UNL d   1     -41.223-123.083 -53.750  0.00  0.00     0.098 A 
ENDBRANCH   4  25
TORSDOF 5
ENDMDL
