MODEL 1
REMARK VINA RESULT:      -4.5      0.000      0.000
REMARK  4 active torsions:
REMARK  status: ('A' for Active; 'I' for Inactive)
REMARK    1  A    between atoms: C_6  and  C_1 
REMARK       I    between atoms: N_8  and  C_6 
REMARK    2  A    between atoms: C_17  and  N_8 
REMARK    3  A    between atoms: C_9  and  C_17 
REMARK    4  A    between atoms: O_18  and  C_12 
ROOT
ATOM      1  C   UNL d   1     -41.729-122.169 -50.869  0.00  0.00     0.121 A 
ATOM      2  C   UNL d   1     -42.528-122.096 -50.727  0.00  0.00     0.305 A 
ATOM      3  O   UNL d   1     -42.875-122.471 -50.073  0.00  0.00    -0.271 OA
ATOM      4  C   UNL d   1     -41.252-122.616 -50.364  0.00  0.00     0.012 A 
ATOM      5  C   UNL d   1     -42.398-122.918 -49.568  0.00  0.00     0.125 A 
ATOM      6  C   UNL d   1     -41.599-122.991 -49.710  0.00  0.00     0.025 A 
ATOM      7  O   UNL d   1     -43.006-121.644 -51.238  0.00  0.00    -0.259 OA
ATOM      8  C   UNL d   1     -42.738-123.288 -48.924  0.00  0.00     0.117 A 
ATOM      9  C   UNL d   1     -41.123-123.436 -49.209  0.00  0.00     0.002 A 
ATOM     10  C   UNL d   1     -41.457-123.816 -48.551  0.00  0.00     0.002 A 
ATOM     11  C   UNL d   1     -42.268-123.742 -48.407  0.00  0.00     0.026 A 
ENDROOT
BRANCH   1  12
ATOM     12  C   UNL d   1     -41.403-121.790 -51.522  0.00  0.00     0.284 C 
ATOM     13  N   UNL d   1     -41.253-121.978 -52.311  0.00  0.00    -0.204 NA
ATOM     14  O   UNL d   1     -41.127-121.008 -51.453  0.00  0.00    -0.265 OA
BRANCH  13  15
ATOM     15  C   UNL d   1     -41.456-122.726 -52.592  0.00  0.00     0.127 C 
BRANCH  15  16
ATOM     16  C   UNL d   1     -41.365-122.914 -53.395  0.00  0.00     0.119 A 
ATOM     17  O   UNL d   1     -41.472-122.401 -54.027  0.00  0.00    -0.304 OA
ATOM     18  C   UNL d   1     -41.322-122.824 -54.709  0.00  0.00     0.123 A 
ATOM     19  C   UNL d   1     -41.123-123.601 -54.491  0.00  0.00     0.029 A 
ATOM     20  C   UNL d   1     -41.149-123.656 -53.683  0.00  0.00     0.028 A 
ENDBRANCH  15  16
ENDBRANCH  13  15
ENDBRANCH   1  12
BRANCH   8  21
ATOM     21  O   UNL d   1     -43.541-123.215 -48.781  0.00  0.00    -0.326 OA
ATOM     22  C   UNL d   1     -43.938-123.778 -48.338  0.00  0.00     0.181 C 
ENDBRANCH   8  21
TORSDOF 4
ENDMDL
MODEL 2
REMARK VINA RESULT:      -3.8      0.912      4.357
REMARK  4 active torsions:
REMARK  status: ('A' for Active; 'I' for Inactive)
REMARK    1  A    between atoms: C_6  and  C_1 
REMARK       I    between atoms: N_8  and  C_6 
REMARK    2  A    between atoms: C_17  and  N_8 
REMARK    3  A    between atoms: C_9  and  C_17 
REMARK    4  A    between atoms: O_18  and  C_12 
ROOT
ATOM      1  C   UNL d   1     -41.609-122.052 -52.065  0.00  0.00     0.121 A 
ATOM      2  C   UNL d   1     -42.002-121.517 -52.537  0.00  0.00     0.305 A 
ATOM      3  O   UNL d   1     -42.110-121.670 -53.345  0.00  0.00    -0.271 OA
ATOM      4  C   UNL d   1     -41.313-122.755 -52.383  0.00  0.00     0.012 A 
ATOM      5  C   UNL d   1     -41.813-122.372 -53.664  0.00  0.00     0.125 A 
ATOM      6  C   UNL d   1     -41.421-122.908 -53.191  0.00  0.00     0.025 A 
ATOM      7  O   UNL d   1     -42.299-120.810 -52.212  0.00  0.00    -0.259 OA
ATOM      8  C   UNL d   1     -41.919-122.524 -54.460  0.00  0.00     0.117 A 
ATOM      9  C   UNL d   1     -41.125-123.607 -53.505  0.00  0.00     0.002 A 
ATOM     10  C   UNL d   1     -41.226-123.773 -54.313  0.00  0.00     0.002 A 
ATOM     11  C   UNL d   1     -41.625-123.229 -54.793  0.00  0.00     0.026 A 
ENDROOT
BRANCH   1  12
ATOM     12  C   UNL d   1     -41.512-121.884 -51.266  0.00  0.00     0.284 C 
ATOM     13  N   UNL d   1     -41.707-122.242 -50.549  0.00  0.00    -0.204 NA
ATOM     14  O   UNL d   1     -41.123-121.185 -51.033  0.00  0.00    -0.265 OA
BRANCH  13  15
ATOM     15  C   UNL d   1     -42.107-122.964 -50.556  0.00  0.00     0.127 C 
BRANCH  15  16
ATOM     16  C   UNL d   1     -42.463-123.255 -49.866  0.00  0.00     0.119 A 
ATOM     17  O   UNL d   1     -43.270-123.288 -49.714  0.00  0.00    -0.304 OA
ATOM     18  C   UNL d   1     -43.363-123.613 -48.971  0.00  0.00     0.123 A 
ATOM     19  C   UNL d   1     -42.608-123.780 -48.668  0.00  0.00     0.029 A 
ATOM     20  C   UNL d   1     -42.055-123.560 -49.218  0.00  0.00     0.028 A 
ENDBRANCH  15  16
ENDBRANCH  13  15
ENDBRANCH   1  12
BRANCH   8  21
ATOM     21  O   UNL d   1     -42.313-121.986 -54.934  0.00  0.00    -0.326 OA
ATOM     22  C   UNL d   1     -42.464-122.157 -55.721  0.00  0.00     0.181 C 
ENDBRANCH   8  21
TORSDOF 4
ENDMDL
