MODEL 1
REMARK VINA RESULT:      47.7      0.000      0.000
REMARK  7 active torsions:
REMARK  status: ('A' for Active; 'I' for Inactive)
REMARK    1  A    between atoms: N_3  and  S_1 
REMARK    2  A    between atoms: C_6  and  S_1 
REMARK    3  A    between atoms: N_2  and  C_5 
REMARK    4  A    between atoms: C_4  and  N_3 
REMARK    5  A    between atoms: C_5  and  C_4 
REMARK    6  A    between atoms: C_10  and  C_5 
REMARK    7  A    between atoms: O_26  and  C_20 
ROOT
ATOM      1  C   UNL d   1      13.421  13.346  -3.458  0.00  0.00     0.084 C 
ENDROOT
BRANCH   1   2
ATOM      2  N   UNL d   1      13.318  12.955  -4.177  0.00  0.00    -0.300 N 
ATOM      3  C   UNL d   1      13.585  13.299  -4.868  0.00  0.00     0.100 A 
ATOM      4  C   UNL d   1      13.481  12.907  -5.587  0.00  0.00     0.100 A 
ATOM      5  N   UNL d   1      13.109  12.171  -5.605  0.00  0.00    -0.299 N 
ATOM      6  C   UNL d   1      12.841  11.827  -4.904  0.00  0.00     0.100 A 
ATOM      7  C   UNL d   1      13.006  11.779  -6.328  0.00  0.00     0.100 C 
ATOM      8  C   UNL d   1      12.946  12.219  -4.195  0.00  0.00     0.100 A 
ENDBRANCH   1   2
BRANCH   1   9
ATOM      9  C   UNL d   1      13.247  12.962  -2.750  0.00  0.00     0.130 C 
BRANCH   9  10
ATOM     10  N   UNL d   1      13.856  12.648  -2.290  0.00  0.00    -0.155 NA
BRANCH  10  11
ATOM     11  S   UNL d   1      13.680  12.214  -1.610  0.00  0.00     0.285 S 
ATOM     12  O   UNL d   1      13.077  11.823  -2.022  0.00  0.00    -0.198 OA
ATOM     13  O   UNL d   1      13.502  11.779  -0.932  0.00  0.00    -0.198 OA
BRANCH  11  14
ATOM     14  C   UNL d   1      14.291  12.615  -1.203  0.00  0.00     0.105 A 
ATOM     15  C   UNL d   1      14.115  13.079  -0.560  0.00  0.00     0.015 A 
ATOM     16  C   UNL d   1      14.724  13.478  -0.156  0.00  0.00     0.025 A 
ATOM     17  C   UNL d   1      15.503  13.397  -0.412  0.00  0.00     0.094 A 
ATOM     18  C   UNL d   1      15.674  12.918  -1.073  0.00  0.00     0.025 A 
ATOM     19  C   UNL d   1      15.070  12.534  -1.459  0.00  0.00     0.015 A 
BRANCH  17  20
ATOM     20  O   UNL d   1      16.121  13.791  -0.015  0.00  0.00    -0.328 OA
ATOM     21  C   UNL d   1      16.595  14.334  -0.414  0.00  0.00     0.181 C 
ENDBRANCH  17  20
ENDBRANCH  11  14
ENDBRANCH  10  11
ENDBRANCH   9  10
ENDBRANCH   1   9
BRANCH   1  22
ATOM     22  C   UNL d   1      13.702  14.132  -3.448  0.00  0.00     0.018 A 
ATOM     23  C   UNL d   1      14.377  14.333  -3.876  0.00  0.00     0.004 A 
ATOM     24  C   UNL d   1      14.654  15.109  -3.866  0.00  0.00     0.030 A 
ATOM     25  C   UNL d   1      14.257  15.684  -3.429  0.00  0.00     0.140 A 
ATOM     26  C   UNL d   1      13.580  15.482  -3.001  0.00  0.00     0.030 A 
ATOM     27  F   UNL d   1      14.534  16.460  -3.419  0.00  0.00    -0.204 F 
ATOM     28  C   UNL d   1      13.303  14.706  -3.010  0.00  0.00     0.004 A 
ENDBRANCH   1  22
TORSDOF 7
ENDMDL
