MODEL 1
REMARK VINA RESULT:      50.9      0.000      0.000
REMARK  5 active torsions:
REMARK  status: ('A' for Active; 'I' for Inactive)
REMARK    1  A    between atoms: C_2  and  C_1 
REMARK    2  A    between atoms: O_16  and  C_13 
REMARK    3  A    between atoms: C_21  and  O_16 
REMARK    4  A    between atoms: O_22  and  C_17 
REMARK    5  A    between atoms: C_20  and  C_21 
ROOT
ATOM      1  C   UNL d   1      46.238 -18.399  43.907  0.00  0.00     0.030 A 
ATOM      2  C   UNL d   1      46.332 -18.614  43.116  0.00  0.00     0.027 A 
ATOM      3  C   UNL d   1      46.476 -19.403  42.920  0.00  0.00     0.103 A 
ATOM      4  O   UNL d   1      46.526 -19.976  43.511  0.00  0.00    -0.273 OA
ATOM      5  C   UNL d   1      46.432 -19.763  44.302  0.00  0.00     0.300 A 
ATOM      6  C   UNL d   1      46.288 -18.973  44.497  0.00  0.00     0.071 A 
ATOM      7  C   UNL d   1      46.284 -18.043  42.514  0.00  0.00     0.027 A 
ATOM      8  C   UNL d   1      46.379 -18.271  41.735  0.00  0.00     0.100 A 
ATOM      9  C   UNL d   1      46.571 -19.622  42.127  0.00  0.00     0.027 A 
ATOM     10  C   UNL d   1      46.522 -19.058  41.534  0.00  0.00     0.025 A 
ATOM     11  O   UNL d   1      46.480 -20.327  44.896  0.00  0.00    -0.259 OA
ATOM     12  C   UNL d   1      46.616 -19.275  40.753  0.00  0.00     0.002 C 
ENDROOT
BRANCH   1  13
ATOM     13  C   UNL d   1      46.095 -17.609  44.097  0.00  0.00     0.100 A 
ATOM     14  O   UNL d   1      45.371 -17.221  44.011  0.00  0.00    -0.305 OA
ATOM     15  C   UNL d   1      45.466 -16.443  44.263  0.00  0.00     0.122 A 
ATOM     16  C   UNL d   1      44.947 -15.807  44.305  0.00  0.00     0.117 A 
ATOM     17  C   UNL d   1      46.249 -16.347  44.505  0.00  0.00     0.027 A 
ATOM     18  C   UNL d   1      45.201 -15.082  44.585  0.00  0.00     0.026 A 
ATOM     19  C   UNL d   1      45.983 -14.981  44.828  0.00  0.00     0.002 A 
ATOM     20  C   UNL d   1      46.508 -15.617  44.787  0.00  0.00     0.002 A 
ATOM     21  C   UNL d   1      46.636 -17.067  44.402  0.00  0.00     0.027 A 
BRANCH  16  22
ATOM     22  O   UNL d   1      44.173 -15.902  44.066  0.00  0.00    -0.326 OA
ATOM     23  C   UNL d   1      43.577 -15.447  44.409  0.00  0.00     0.181 C 
ENDBRANCH  16  22
ENDBRANCH   1  13
BRANCH   8  24
ATOM     24  O   UNL d   1      46.329 -17.695  41.140  0.00  0.00    -0.302 OA
BRANCH  24  25
ATOM     25  C   UNL d   1      45.715 -17.726  40.589  0.00  0.00     0.165 C 
BRANCH  25  26
ATOM     26  C   UNL d   1      45.866 -17.582  39.794  0.00  0.00     0.220 C 
ATOM     27  O   UNL d   1      45.355 -17.881  39.220  0.00  0.00    -0.284 OA
ATOM     28  C   UNL d   1      46.513 -17.150  39.570  0.00  0.00     0.048 C 
ENDBRANCH  25  26
ENDBRANCH  24  25
ENDBRANCH   8  24
TORSDOF 5
ENDMDL
