MODEL 1
REMARK VINA RESULT:      -7.6      0.000      0.000
REMARK  4 active torsions:
REMARK  status: ('A' for Active; 'I' for Inactive)
REMARK    1  A    between atoms: N_2  and  S_1 
REMARK    2  A    between atoms: C_4  and  S_1 
REMARK    3  A    between atoms: O_16  and  C_13 
REMARK    4  A    between atoms: C_19  and  O_16 
ROOT
ATOM      1  S   UNL d   1     -47.717  13.535  22.875  0.00  0.00     0.271 S 
ATOM      2  O   UNL d   1     -47.842  13.565  22.059  0.00  0.00    -0.200 OA
ATOM      3  O   UNL d   1     -47.594  13.505  23.696  0.00  0.00    -0.200 OA
ENDROOT
BRANCH   1   4
ATOM      4  N   UNL d   1     -48.508  13.753  23.003  0.00  0.00    -0.229 N 
ATOM      5  C   UNL d   1     -48.705  14.546  23.109  0.00  0.00     0.092 A 
ATOM      6  C   UNL d   1     -49.491  14.759  23.236  0.00  0.00     0.018 A 
ATOM      7  C   UNL d   1     -49.691  15.554  23.342  0.00  0.00     0.002 A 
ATOM      8  C   UNL d   1     -50.079  14.180  23.256  0.00  0.00     0.003 A 
ATOM      9  C   UNL d   1     -50.477  15.767  23.469  0.00  0.00     0.000 A 
ATOM     10  C   UNL d   1     -51.064  15.188  23.489  0.00  0.00     0.000 A 
ATOM     11  C   UNL d   1     -50.866  14.395  23.383  0.00  0.00     0.000 A 
ATOM     12  C   UNL d   1     -49.881  13.387  23.150  0.00  0.00     0.020 A 
ATOM     13  C   UNL d   1     -49.096  13.175  23.024  0.00  0.00     0.092 A 
ENDBRANCH   1   4
BRANCH   1  14
ATOM     14  C   UNL d   1     -46.934  13.318  22.745  0.00  0.00     0.104 A 
ATOM     15  C   UNL d   1     -46.658  12.585  23.008  0.00  0.00     0.015 A 
ATOM     16  C   UNL d   1     -45.874  12.368  22.878  0.00  0.00     0.025 A 
ATOM     17  C   UNL d   1     -45.364  12.882  22.484  0.00  0.00     0.100 A 
ATOM     18  C   UNL d   1     -45.637  13.613  22.221  0.00  0.00     0.025 A 
ATOM     19  C   UNL d   1     -46.423  13.833  22.351  0.00  0.00     0.015 A 
BRANCH  17  20
ATOM     20  O   UNL d   1     -44.581  12.665  22.354  0.00  0.00    -0.305 OA
BRANCH  20  21
ATOM     21  C   UNL d   1     -44.198  12.896  21.660  0.00  0.00     0.123 C 
ATOM     22  C   UNL d   1     -43.436  12.626  21.500  0.00  0.00     0.029 C 
ENDBRANCH  20  21
ENDBRANCH  17  20
ENDBRANCH   1  14
TORSDOF 4
ENDMDL
MODEL 2
REMARK VINA RESULT:      -6.1      1.289      4.932
REMARK  4 active torsions:
REMARK  status: ('A' for Active; 'I' for Inactive)
REMARK    1  A    between atoms: N_2  and  S_1 
REMARK    2  A    between atoms: C_4  and  S_1 
REMARK    3  A    between atoms: O_16  and  C_13 
REMARK    4  A    between atoms: C_19  and  O_16 
ROOT
ATOM      1  S   UNL d   1     -47.311  13.075  22.962  0.00  0.00     0.271 S 
ATOM      2  O   UNL d   1     -46.978  13.622  23.484  0.00  0.00    -0.200 OA
ATOM      3  O   UNL d   1     -47.643  12.523  22.437  0.00  0.00    -0.200 OA
ENDROOT
BRANCH   1   4
ATOM      4  N   UNL d   1     -46.588  12.665  22.934  0.00  0.00    -0.229 N 
ATOM      5  C   UNL d   1     -46.505  11.948  23.330  0.00  0.00     0.092 A 
ATOM      6  C   UNL d   1     -45.787  11.545  23.299  0.00  0.00     0.018 A 
ATOM      7  C   UNL d   1     -45.701  10.825  23.696  0.00  0.00     0.002 A 
ATOM      8  C   UNL d   1     -45.154  11.859  22.873  0.00  0.00     0.003 A 
ATOM      9  C   UNL d   1     -44.983  10.422  23.666  0.00  0.00     0.000 A 
ATOM     10  C   UNL d   1     -44.350  10.736  23.240  0.00  0.00     0.000 A 
ATOM     11  C   UNL d   1     -44.434  11.453  22.844  0.00  0.00     0.000 A 
ATOM     12  C   UNL d   1     -45.238  12.576  22.477  0.00  0.00     0.020 A 
ATOM     13  C   UNL d   1     -45.955  12.979  22.508  0.00  0.00     0.092 A 
ENDBRANCH   1   4
BRANCH   1  14
ATOM     14  C   UNL d   1     -48.024  13.483  22.993  0.00  0.00     0.104 A 
ATOM     15  C   UNL d   1     -48.030  14.309  22.970  0.00  0.00     0.015 A 
ATOM     16  C   UNL d   1     -48.745  14.718  23.001  0.00  0.00     0.025 A 
ATOM     17  C   UNL d   1     -49.456  14.303  23.053  0.00  0.00     0.100 A 
ATOM     18  C   UNL d   1     -49.452  13.480  23.076  0.00  0.00     0.025 A 
ATOM     19  C   UNL d   1     -48.735  13.068  23.045  0.00  0.00     0.015 A 
BRANCH  17  20
ATOM     20  O   UNL d   1     -50.169  14.711  23.084  0.00  0.00    -0.305 OA
BRANCH  20  21
ATOM     21  C   UNL d   1     -50.232  15.402  23.530  0.00  0.00     0.123 C 
ATOM     22  C   UNL d   1     -50.956  15.790  23.591  0.00  0.00     0.029 C 
ENDBRANCH  20  21
ENDBRANCH  17  20
ENDBRANCH   1  14
TORSDOF 4
ENDMDL
MODEL 3
REMARK VINA RESULT:      -5.9      8.227      9.921
REMARK  4 active torsions:
REMARK  status: ('A' for Active; 'I' for Inactive)
REMARK    1  A    between atoms: N_2  and  S_1 
REMARK    2  A    between atoms: C_4  and  S_1 
REMARK    3  A    between atoms: O_16  and  C_13 
REMARK    4  A    between atoms: C_19  and  O_16 
ROOT
ATOM      1  S   UNL d   1     -39.421  14.587  18.046  0.00  0.00     0.271 S 
ATOM      2  O   UNL d   1     -38.881  15.213  18.057  0.00  0.00    -0.200 OA
ATOM      3  O   UNL d   1     -39.964  13.960  18.037  0.00  0.00    -0.200 OA
ENDROOT
BRANCH   1   4
ATOM      4  N   UNL d   1     -39.792  14.897  18.722  0.00  0.00    -0.229 N 
ATOM      5  C   UNL d   1     -39.395  14.906  19.443  0.00  0.00     0.092 A 
ATOM      6  C   UNL d   1     -39.767  15.214  20.111  0.00  0.00     0.018 A 
ATOM      7  C   UNL d   1     -39.370  15.223  20.836  0.00  0.00     0.002 A 
ATOM      8  C   UNL d   1     -40.533  15.514  20.056  0.00  0.00     0.003 A 
ATOM      9  C   UNL d   1     -39.741  15.532  21.504  0.00  0.00     0.000 A 
ATOM     10  C   UNL d   1     -40.508  15.831  21.449  0.00  0.00     0.000 A 
ATOM     11  C   UNL d   1     -40.905  15.823  20.727  0.00  0.00     0.000 A 
ATOM     12  C   UNL d   1     -40.930  15.505  19.334  0.00  0.00     0.020 A 
ATOM     13  C   UNL d   1     -40.559  15.197  18.667  0.00  0.00     0.092 A 
ENDBRANCH   1   4
BRANCH   1  14
ATOM     14  C   UNL d   1     -39.051  14.283  17.377  0.00  0.00     0.104 A 
ATOM     15  C   UNL d   1     -38.938  14.762  16.712  0.00  0.00     0.015 A 
ATOM     16  C   UNL d   1     -38.568  14.457  16.042  0.00  0.00     0.025 A 
ATOM     17  C   UNL d   1     -38.309  13.674  16.034  0.00  0.00     0.100 A 
ATOM     18  C   UNL d   1     -38.421  13.196  16.695  0.00  0.00     0.025 A 
ATOM     19  C   UNL d   1     -38.792  13.500  17.368  0.00  0.00     0.015 A 
BRANCH  17  20
ATOM     20  O   UNL d   1     -37.940  13.370  15.365  0.00  0.00    -0.305 OA
BRANCH  20  21
ATOM     21  C   UNL d   1     -38.043  13.736  14.633  0.00  0.00     0.123 C 
ATOM     22  C   UNL d   1     -37.954  13.302  13.938  0.00  0.00     0.029 C 
ENDBRANCH  20  21
ENDBRANCH  17  20
ENDBRANCH   1  14
TORSDOF 4
ENDMDL
MODEL 4
REMARK VINA RESULT:      -5.9      8.590      9.441
REMARK  4 active torsions:
REMARK  status: ('A' for Active; 'I' for Inactive)
REMARK    1  A    between atoms: N_2  and  S_1 
REMARK    2  A    between atoms: C_4  and  S_1 
REMARK    3  A    between atoms: O_16  and  C_13 
REMARK    4  A    between atoms: C_19  and  O_16 
ROOT
ATOM      1  S   UNL d   1     -39.751  14.866  19.998  0.00  0.00     0.271 S 
ATOM      2  O   UNL d   1     -40.301  14.253  20.062  0.00  0.00    -0.200 OA
ATOM      3  O   UNL d   1     -39.197  15.481  19.935  0.00  0.00    -0.200 OA
ENDROOT
BRANCH   1   4
ATOM      4  N   UNL d   1     -39.491  14.712  20.772  0.00  0.00    -0.229 N 
ATOM      5  C   UNL d   1     -38.974  14.088  20.918  0.00  0.00     0.092 A 
ATOM      6  C   UNL d   1     -38.719  13.939  21.687  0.00  0.00     0.018 A 
ATOM      7  C   UNL d   1     -38.200  13.313  21.835  0.00  0.00     0.002 A 
ATOM      8  C   UNL d   1     -38.981  14.413  22.309  0.00  0.00     0.003 A 
ATOM      9  C   UNL d   1     -37.945  13.163  22.604  0.00  0.00     0.000 A 
ATOM     10  C   UNL d   1     -38.207  13.638  23.226  0.00  0.00     0.000 A 
ATOM     11  C   UNL d   1     -38.724  14.262  23.080  0.00  0.00     0.000 A 
ATOM     12  C   UNL d   1     -39.499  15.037  22.163  0.00  0.00     0.020 A 
ATOM     13  C   UNL d   1     -39.753  15.186  21.394  0.00  0.00     0.092 A 
ENDBRANCH   1   4
BRANCH   1  14
ATOM     14  C   UNL d   1     -40.010  15.015  19.232  0.00  0.00     0.104 A 
ATOM     15  C   UNL d   1     -40.302  15.763  19.032  0.00  0.00     0.015 A 
ATOM     16  C   UNL d   1     -40.562  15.913  18.265  0.00  0.00     0.025 A 
ATOM     17  C   UNL d   1     -40.531  15.318  17.695  0.00  0.00     0.100 A 
ATOM     18  C   UNL d   1     -40.240  14.573  17.892  0.00  0.00     0.025 A 
ATOM     19  C   UNL d   1     -39.979  14.420  18.661  0.00  0.00     0.015 A 
BRANCH  17  20
ATOM     20  O   UNL d   1     -40.790  15.467  16.928  0.00  0.00    -0.305 OA
BRANCH  20  21
ATOM     21  C   UNL d   1     -41.480  15.902  16.803  0.00  0.00     0.123 C 
ATOM     22  C   UNL d   1     -41.826  15.922  16.056  0.00  0.00     0.029 C 
ENDBRANCH  20  21
ENDBRANCH  17  20
ENDBRANCH   1  14
TORSDOF 4
ENDMDL
MODEL 5
REMARK VINA RESULT:      -5.3      8.456      9.320
REMARK  4 active torsions:
REMARK  status: ('A' for Active; 'I' for Inactive)
REMARK    1  A    between atoms: N_2  and  S_1 
REMARK    2  A    between atoms: C_4  and  S_1 
REMARK    3  A    between atoms: O_16  and  C_13 
REMARK    4  A    between atoms: C_19  and  O_16 
ROOT
ATOM      1  S   UNL d   1     -39.626  14.883  19.521  0.00  0.00     0.271 S 
ATOM      2  O   UNL d   1     -39.411  15.662  19.690  0.00  0.00    -0.200 OA
ATOM      3  O   UNL d   1     -39.842  14.100  19.349  0.00  0.00    -0.200 OA
ENDROOT
BRANCH   1   4
ATOM      4  N   UNL d   1     -39.751  15.091  18.727  0.00  0.00    -0.229 N 
ATOM      5  C   UNL d   1     -40.504  15.300  18.468  0.00  0.00     0.092 A 
ATOM      6  C   UNL d   1     -40.624  15.506  17.680  0.00  0.00     0.018 A 
ATOM      7  C   UNL d   1     -41.380  15.716  17.419  0.00  0.00     0.002 A 
ATOM      8  C   UNL d   1     -39.991  15.504  17.151  0.00  0.00     0.003 A 
ATOM      9  C   UNL d   1     -41.500  15.922  16.630  0.00  0.00     0.000 A 
ATOM     10  C   UNL d   1     -40.867  15.919  16.101  0.00  0.00     0.000 A 
ATOM     11  C   UNL d   1     -40.113  15.711  16.360  0.00  0.00     0.000 A 
ATOM     12  C   UNL d   1     -39.237  15.295  17.410  0.00  0.00     0.020 A 
ATOM     13  C   UNL d   1     -39.118  15.089  18.198  0.00  0.00     0.092 A 
ENDBRANCH   1   4
BRANCH   1  14
ATOM     14  C   UNL d   1     -39.502  14.679  20.309  0.00  0.00     0.104 A 
ATOM     15  C   UNL d   1     -38.794  14.316  20.536  0.00  0.00     0.015 A 
ATOM     16  C   UNL d   1     -38.669  14.113  21.324  0.00  0.00     0.025 A 
ATOM     17  C   UNL d   1     -39.250  14.271  21.888  0.00  0.00     0.100 A 
ATOM     18  C   UNL d   1     -39.954  14.633  21.664  0.00  0.00     0.025 A 
ATOM     19  C   UNL d   1     -40.082  14.838  20.873  0.00  0.00     0.015 A 
BRANCH  17  20
ATOM     20  O   UNL d   1     -39.125  14.068  22.676  0.00  0.00    -0.305 OA
BRANCH  20  21
ATOM     21  C   UNL d   1     -38.660  13.414  22.865  0.00  0.00     0.123 C 
ATOM     22  C   UNL d   1     -38.528  13.214  23.653  0.00  0.00     0.029 C 
ENDBRANCH  20  21
ENDBRANCH  17  20
ENDBRANCH   1  14
TORSDOF 4
ENDMDL
MODEL 6
REMARK VINA RESULT:      -5.0      8.720     10.492
REMARK  4 active torsions:
REMARK  status: ('A' for Active; 'I' for Inactive)
REMARK    1  A    between atoms: N_2  and  S_1 
REMARK    2  A    between atoms: C_4  and  S_1 
REMARK    3  A    between atoms: O_16  and  C_13 
REMARK    4  A    between atoms: C_19  and  O_16 
ROOT
ATOM      1  S   UNL d   1     -38.941  14.311  19.053  0.00  0.00     0.271 S 
ATOM      2  O   UNL d   1     -39.396  13.630  18.947  0.00  0.00    -0.200 OA
ATOM      3  O   UNL d   1     -38.483  14.996  19.158  0.00  0.00    -0.200 OA
ENDROOT
BRANCH   1   4
ATOM      4  N   UNL d   1     -38.879  14.396  18.229  0.00  0.00    -0.229 N 
ATOM      5  C   UNL d   1     -38.470  13.835  17.787  0.00  0.00     0.092 A 
ATOM      6  C   UNL d   1     -38.410  13.922  16.970  0.00  0.00     0.018 A 
ATOM      7  C   UNL d   1     -37.999  13.360  16.524  0.00  0.00     0.002 A 
ATOM      8  C   UNL d   1     -38.759  14.570  16.596  0.00  0.00     0.003 A 
ATOM      9  C   UNL d   1     -37.940  13.447  15.707  0.00  0.00     0.000 A 
ATOM     10  C   UNL d   1     -38.288  14.095  15.333  0.00  0.00     0.000 A 
ATOM     11  C   UNL d   1     -38.698  14.656  15.776  0.00  0.00     0.000 A 
ATOM     12  C   UNL d   1     -39.168  15.131  17.039  0.00  0.00     0.020 A 
ATOM     13  C   UNL d   1     -39.228  15.043  17.856  0.00  0.00     0.092 A 
ENDBRANCH   1   4
BRANCH   1  14
ATOM     14  C   UNL d   1     -39.005  14.225  19.869  0.00  0.00     0.104 A 
ATOM     15  C   UNL d   1     -38.338  14.035  20.319  0.00  0.00     0.015 A 
ATOM     16  C   UNL d   1     -38.401  13.948  21.135  0.00  0.00     0.025 A 
ATOM     17  C   UNL d   1     -39.131  14.050  21.506  0.00  0.00     0.100 A 
ATOM     18  C   UNL d   1     -39.797  14.240  21.059  0.00  0.00     0.025 A 
ATOM     19  C   UNL d   1     -39.735  14.327  20.239  0.00  0.00     0.015 A 
BRANCH  17  20
ATOM     20  O   UNL d   1     -39.195  13.964  22.321  0.00  0.00    -0.305 OA
BRANCH  20  21
ATOM     21  C   UNL d   1     -38.705  13.433  22.720  0.00  0.00     0.123 C 
ATOM     22  C   UNL d   1     -38.744  13.372  23.541  0.00  0.00     0.029 C 
ENDBRANCH  20  21
ENDBRANCH  17  20
ENDBRANCH   1  14
TORSDOF 4
ENDMDL
