MODEL 1
REMARK VINA RESULT:      -3.4      0.000      0.000
REMARK  5 active torsions:
REMARK  status: ('A' for Active; 'I' for Inactive)
REMARK    1  A    between atoms: C_2  and  S_1 
REMARK    2  A    between atoms: C_12  and  S_1 
REMARK    3  A    between atoms: N_5  and  C_3 
REMARK    4  A    between atoms: C_18  and  N_7 
REMARK    5  A    between atoms: O_22  and  C_20 
ROOT
ATOM      1  C   UNL d   1     -39.036  15.273  19.925  0.00  0.00     0.123 A 
ATOM      2  C   UNL d   1     -39.726  15.100  19.501  0.00  0.00     0.078 A 
ATOM      3  C   UNL d   1     -39.786  15.316  18.709  0.00  0.00     0.036 A 
ATOM      4  C   UNL d   1     -38.411  15.662  19.553  0.00  0.00     0.112 A 
ATOM      5  N   UNL d   1     -38.475  15.878  18.758  0.00  0.00    -0.243 NA
ATOM      6  C   UNL d   1     -39.161  15.706  18.338  0.00  0.00     0.083 A 
ATOM      7  C   UNL d   1     -40.473  15.143  18.289  0.00  0.00     0.027 A 
ATOM      8  C   UNL d   1     -39.223  15.922  17.545  0.00  0.00     0.021 A 
ATOM      9  C   UNL d   1     -40.539  15.360  17.489  0.00  0.00     0.094 A 
ATOM     10  C   UNL d   1     -39.914  15.749  17.118  0.00  0.00     0.026 A 
ENDROOT
BRANCH   2  11
ATOM     11  N   UNL d   1     -40.357  14.707  19.877  0.00  0.00    -0.301 N 
ATOM     12  C   UNL d   1     -40.406  13.879  19.842  0.00  0.00     0.100 A 
ATOM     13  C   UNL d   1     -41.038  13.495  20.218  0.00  0.00     0.100 A 
ATOM     14  N   UNL d   1     -41.612  13.930  20.623  0.00  0.00    -0.301 N 
ATOM     15  C   UNL d   1     -41.559  14.761  20.656  0.00  0.00     0.100 A 
ATOM     16  C   UNL d   1     -40.931  15.143  20.282  0.00  0.00     0.100 A 
BRANCH  14  17
ATOM     17  C   UNL d   1     -42.237  13.541  20.995  0.00  0.00     0.064 A 
ATOM     18  C   UNL d   1     -42.995  13.881  20.992  0.00  0.00     0.018 A 
ATOM     19  C   UNL d   1     -43.623  13.494  21.362  0.00  0.00     0.002 A 
ATOM     20  C   UNL d   1     -43.496  12.772  21.735  0.00  0.00     0.000 A 
ATOM     21  C   UNL d   1     -42.740  12.435  21.738  0.00  0.00     0.002 A 
ATOM     22  C   UNL d   1     -42.115  12.824  21.366  0.00  0.00     0.018 A 
ENDBRANCH  14  17
ENDBRANCH   2  11
BRANCH   1  23
ATOM     23  S   UNL d   1     -38.971  15.056  20.724  0.00  0.00     0.213 S 
ATOM     24  O   UNL d   1     -38.690  14.311  20.500  0.00  0.00    -0.217 OA
ATOM     25  O   UNL d   1     -39.255  15.806  20.954  0.00  0.00    -0.217 OA
BRANCH  23  26
ATOM     26  C   UNL d   1     -38.907  14.841  21.519  0.00  0.00     0.088 A 
ATOM     27  C   UNL d   1     -39.169  15.350  22.114  0.00  0.00     0.011 A 
ATOM     28  C   UNL d   1     -39.106  15.138  22.907  0.00  0.00     0.001 A 
ATOM     29  C   UNL d   1     -38.775  14.403  23.120  0.00  0.00     0.000 A 
ATOM     30  C   UNL d   1     -38.511  13.891  22.524  0.00  0.00     0.001 A 
ATOM     31  C   UNL d   1     -38.579  14.114  21.725  0.00  0.00     0.011 A 
ENDBRANCH  23  26
ENDBRANCH   1  23
BRANCH   9  32
ATOM     32  O   UNL d   1     -41.232  15.183  17.074  0.00  0.00    -0.328 OA
ATOM     33  C   UNL d   1     -41.612  15.780  16.645  0.00  0.00     0.181 C 
ENDBRANCH   9  32
TORSDOF 5
ENDMDL
MODEL 2
REMARK VINA RESULT:      -2.1      6.115      8.358
REMARK  5 active torsions:
REMARK  status: ('A' for Active; 'I' for Inactive)
REMARK    1  A    between atoms: C_2  and  S_1 
REMARK    2  A    between atoms: C_12  and  S_1 
REMARK    3  A    between atoms: N_5  and  C_3 
REMARK    4  A    between atoms: C_18  and  N_7 
REMARK    5  A    between atoms: O_22  and  C_20 
ROOT
ATOM      1  C   UNL d   1     -46.332  13.672  22.361  0.00  0.00     0.123 A 
ATOM      2  C   UNL d   1     -46.455  12.900  22.633  0.00  0.00     0.078 A 
ATOM      3  C   UNL d   1     -45.813  12.398  22.746  0.00  0.00     0.036 A 
ATOM      4  C   UNL d   1     -45.567  13.936  22.203  0.00  0.00     0.112 A 
ATOM      5  N   UNL d   1     -44.924  13.429  22.318  0.00  0.00    -0.243 NA
ATOM      6  C   UNL d   1     -45.047  12.662  22.589  0.00  0.00     0.083 A 
ATOM      7  C   UNL d   1     -45.937  11.630  23.018  0.00  0.00     0.027 A 
ATOM      8  C   UNL d   1     -44.406  12.158  22.703  0.00  0.00     0.021 A 
ATOM      9  C   UNL d   1     -45.292  11.119  23.134  0.00  0.00     0.094 A 
ATOM     10  C   UNL d   1     -44.526  11.383  22.976  0.00  0.00     0.026 A 
ENDROOT
BRANCH   2  11
ATOM     11  N   UNL d   1     -47.228  12.634  22.792  0.00  0.00    -0.301 N 
ATOM     12  C   UNL d   1     -47.555  12.746  23.547  0.00  0.00     0.100 A 
ATOM     13  C   UNL d   1     -48.326  12.477  23.697  0.00  0.00     0.100 A 
ATOM     14  N   UNL d   1     -48.763  12.102  23.105  0.00  0.00    -0.301 N 
ATOM     15  C   UNL d   1     -48.431  11.991  22.349  0.00  0.00     0.100 A 
ATOM     16  C   UNL d   1     -47.665  12.258  22.199  0.00  0.00     0.100 A 
BRANCH  14  17
ATOM     17  C   UNL d   1     -49.528  11.838  23.262  0.00  0.00     0.064 A 
ATOM     18  C   UNL d   1     -50.174  12.347  23.143  0.00  0.00     0.018 A 
ATOM     19  C   UNL d   1     -50.941  12.087  23.299  0.00  0.00     0.002 A 
ATOM     20  C   UNL d   1     -51.064  11.321  23.574  0.00  0.00     0.000 A 
ATOM     21  C   UNL d   1     -50.421  10.815  23.693  0.00  0.00     0.002 A 
ATOM     22  C   UNL d   1     -49.655  11.080  23.536  0.00  0.00     0.018 A 
ENDBRANCH  14  17
ENDBRANCH   2  11
BRANCH   1  23
ATOM     23  S   UNL d   1     -46.977  14.182  22.245  0.00  0.00     0.213 S 
ATOM     24  O   UNL d   1     -47.101  13.858  21.494  0.00  0.00    -0.217 OA
ATOM     25  O   UNL d   1     -46.856  14.511  23.002  0.00  0.00    -0.217 OA
BRANCH  23  26
ATOM     26  C   UNL d   1     -47.619  14.690  22.131  0.00  0.00     0.088 A 
ATOM     27  C   UNL d   1     -47.838  15.227  22.717  0.00  0.00     0.011 A 
ATOM     28  C   UNL d   1     -48.477  15.734  22.607  0.00  0.00     0.001 A 
ATOM     29  C   UNL d   1     -48.913  15.710  21.896  0.00  0.00     0.000 A 
ATOM     30  C   UNL d   1     -48.694  15.171  21.305  0.00  0.00     0.001 A 
ATOM     31  C   UNL d   1     -48.047  14.663  21.427  0.00  0.00     0.011 A 
ENDBRANCH  23  26
ENDBRANCH   1  23
BRANCH   9  32
ATOM     32  O   UNL d   1     -45.424  10.349  23.406  0.00  0.00    -0.328 OA
ATOM     33  C   UNL d   1     -44.777   9.862  23.577  0.00  0.00     0.181 C 
ENDBRANCH   9  32
TORSDOF 5
ENDMDL
