MODEL 1
REMARK VINA RESULT:      15.1      0.000      0.000
REMARK  2 active torsions:
REMARK  status: ('A' for Active; 'I' for Inactive)
REMARK    1  A    between atoms: C_6  and  C_1 
REMARK    2  A    between atoms: C_7  and  C_5 
ROOT
ATOM      1  C   UNL d   1      60.482  49.538  50.984  0.00  0.00     0.169 A 
ATOM      2  C   UNL d   1      59.651  49.523  51.103  0.00  0.00     0.048 A 
ATOM      3  N   UNL d   1      59.872  49.705  49.787  0.00  0.00    -0.148 NA
ATOM      4  N   UNL d   1      60.609  49.649  50.182  0.00  0.00    -0.142 NA
ATOM      5  C   UNL d   1      59.281  49.624  50.377  0.00  0.00     0.105 A 
ENDROOT
BRANCH   5   6
ATOM      6  C   UNL d   1      58.470  49.644  50.240  0.00  0.00     0.019 A 
ATOM      7  C   UNL d   1      58.187  49.678  49.465  0.00  0.00     0.002 A 
ATOM      8  C   UNL d   1      57.377  49.698  49.323  0.00  0.00     0.011 A 
ATOM      9  C   UNL d   1      56.830  49.686  49.940  0.00  0.00     0.058 A 
ATOM     10  C   UNL d   1      57.119  49.653  50.710  0.00  0.00     0.011 A 
ATOM     11 CL   UNL d   1      56.038  49.707  49.798  0.00  0.00    -0.082 Cl
ATOM     12  C   UNL d   1      57.931  49.632  50.868  0.00  0.00     0.002 A 
ENDBRANCH   5   6
BRANCH   1  13
ATOM     13  C   UNL d   1      61.062  49.454  51.578  0.00  0.00     0.231 C 
ATOM     14  O   UNL d   1      60.912  49.690  52.361  0.00  0.00    -0.643 OA
ATOM     15  O   UNL d   1      61.800  49.127  51.365  0.00  0.00    -0.643 OA
ENDBRANCH   1  13
TORSDOF 2
ENDMDL
