MODEL 1
REMARK VINA RESULT:      -6.3      0.000      0.000
REMARK  6 active torsions:
REMARK  status: ('A' for Active; 'I' for Inactive)
REMARK    1  A    between atoms: C_6  and  N_1 
REMARK    2  A    between atoms: C_7  and  C_4 
REMARK    3  A    between atoms: C_8  and  C_6 
REMARK    4  A    between atoms: C_11  and  C_6 
REMARK    5  A    between atoms: C_13  and  C_7 
REMARK    6  A    between atoms: C_16  and  C_11 
ROOT
ATOM      1  N   UNL d   1     -48.602  13.039  22.364  0.00  0.00    -0.254 N 
ATOM      2  C   UNL d   1     -48.288  12.752  21.736  0.00  0.00     0.153 A 
ATOM      3  C   UNL d   1     -48.015  13.165  22.917  0.00  0.00     0.272 A 
ATOM      4  C   UNL d   1     -47.299  12.937  22.594  0.00  0.00     0.088 A 
ATOM      5  S   UNL d   1     -47.477  12.679  21.850  0.00  0.00    -0.054 SA
ATOM      6  S   UNL d   1     -48.776  12.565  21.063  0.00  0.00    -0.052 SA
ATOM      7  O   UNL d   1     -48.107  13.478  23.697  0.00  0.00    -0.266 OA
ENDROOT
BRANCH   1   8
ATOM      8  C   UNL d   1     -49.426  13.192  22.453  0.00  0.00     0.132 C 
BRANCH   8   9
ATOM      9  C   UNL d   1     -49.909  12.681  22.851  0.00  0.00     0.228 C 
ATOM     10  O   UNL d   1     -49.811  12.529  23.657  0.00  0.00    -0.643 OA
ATOM     11  O   UNL d   1     -50.520  12.299  22.428  0.00  0.00    -0.643 OA
ENDBRANCH   8   9
BRANCH   8  12
ATOM     12  C   UNL d   1     -49.729  13.913  22.104  0.00  0.00     0.024 C 
BRANCH  12  13
ATOM     13  C   UNL d   1     -50.083  14.463  22.595  0.00  0.00     0.002 A 
ATOM     14  C   UNL d   1     -50.719  14.286  23.040  0.00  0.00     0.000 A 
ATOM     15  C   UNL d   1     -51.061  14.871  23.535  0.00  0.00     0.000 A 
ATOM     16  C   UNL d   1     -50.738  15.593  23.546  0.00  0.00     0.000 A 
ATOM     17  C   UNL d   1     -50.084  15.797  23.097  0.00  0.00     0.000 A 
ATOM     18  C   UNL d   1     -49.739  15.219  22.603  0.00  0.00     0.000 A 
ENDBRANCH  12  13
ENDBRANCH   8  12
ENDBRANCH   1   8
BRANCH   4  19
ATOM     19  C   UNL d   1     -46.587  12.992  23.005  0.00  0.00     0.011 C 
BRANCH  19  20
ATOM     20  C   UNL d   1     -45.833  12.919  22.624  0.00  0.00     0.001 A 
ATOM     21  C   UNL d   1     -45.430  12.218  22.681  0.00  0.00     0.001 A 
ATOM     22  C   UNL d   1     -44.690  12.120  22.317  0.00  0.00     0.007 A 
ATOM     23  C   UNL d   1     -44.363  12.793  21.875  0.00  0.00     0.035 A 
ATOM     24  C   UNL d   1     -44.795  13.487  21.836  0.00  0.00     0.007 A 
ATOM     25 BR   UNL d   1     -43.611  12.726  21.492  0.00  0.00    -0.049 Br
ATOM     26  C   UNL d   1     -45.515  13.554  22.201  0.00  0.00     0.001 A 
ENDBRANCH  19  20
ENDBRANCH   4  19
TORSDOF 6
ENDMDL
MODEL 2
REMARK VINA RESULT:      -5.6      1.231      1.458
REMARK  6 active torsions:
REMARK  status: ('A' for Active; 'I' for Inactive)
REMARK    1  A    between atoms: C_6  and  N_1 
REMARK    2  A    between atoms: C_7  and  C_4 
REMARK    3  A    between atoms: C_8  and  C_6 
REMARK    4  A    between atoms: C_11  and  C_6 
REMARK    5  A    between atoms: C_13  and  C_7 
REMARK    6  A    between atoms: C_16  and  C_11 
ROOT
ATOM      1  N   UNL d   1     -48.304  12.928  22.293  0.00  0.00    -0.254 N 
ATOM      2  C   UNL d   1     -47.689  12.930  21.850  0.00  0.00     0.153 A 
ATOM      3  C   UNL d   1     -48.098  12.639  23.029  0.00  0.00     0.272 A 
ATOM      4  C   UNL d   1     -47.301  12.456  23.022  0.00  0.00     0.088 A 
ATOM      5  S   UNL d   1     -47.049  12.641  22.278  0.00  0.00    -0.054 SA
ATOM      6  S   UNL d   1     -47.744  13.206  21.046  0.00  0.00    -0.052 SA
ATOM      7  O   UNL d   1     -48.604  12.538  23.698  0.00  0.00    -0.266 OA
ENDROOT
BRANCH   1   8
ATOM      8  C   UNL d   1     -49.067  13.187  22.044  0.00  0.00     0.132 C 
BRANCH   8   9
ATOM      9  C   UNL d   1     -49.666  12.661  21.912  0.00  0.00     0.228 C 
ATOM     10  O   UNL d   1     -49.974  12.190  22.517  0.00  0.00    -0.643 OA
ATOM     11  O   UNL d   1     -49.977  12.600  21.138  0.00  0.00    -0.643 OA
ENDBRANCH   8   9
BRANCH   8  12
ATOM     12  C   UNL d   1     -49.178  14.029  21.939  0.00  0.00     0.024 C 
BRANCH  12  13
ATOM     13  C   UNL d   1     -49.731  14.408  22.407  0.00  0.00     0.002 A 
ATOM     14  C   UNL d   1     -50.460  14.114  22.525  0.00  0.00     0.000 A 
ATOM     15  C   UNL d   1     -51.008  14.525  23.011  0.00  0.00     0.000 A 
ATOM     16  C   UNL d   1     -50.779  15.206  23.343  0.00  0.00     0.000 A 
ATOM     17  C   UNL d   1     -50.033  15.528  23.236  0.00  0.00     0.000 A 
ATOM     18  C   UNL d   1     -49.485  15.122  22.753  0.00  0.00     0.000 A 
ENDBRANCH  12  13
ENDBRANCH   8  12
ENDBRANCH   1   8
BRANCH   4  19
ATOM     19  C   UNL d   1     -46.909  12.150  23.679  0.00  0.00     0.011 C 
BRANCH  19  20
ATOM     20  C   UNL d   1     -46.254  11.614  23.612  0.00  0.00     0.001 A 
ATOM     21  C   UNL d   1     -46.388  10.820  23.698  0.00  0.00     0.001 A 
ATOM     22  C   UNL d   1     -45.766  10.273  23.637  0.00  0.00     0.007 A 
ATOM     23  C   UNL d   1     -44.969  10.581  23.478  0.00  0.00     0.035 A 
ATOM     24  C   UNL d   1     -44.868  11.390  23.397  0.00  0.00     0.007 A 
ATOM     25 BR   UNL d   1     -44.313  10.051  23.410  0.00  0.00    -0.049 Br
ATOM     26  C   UNL d   1     -45.494  11.899  23.461  0.00  0.00     0.001 A 
ENDBRANCH  19  20
ENDBRANCH   4  19
TORSDOF 6
ENDMDL
MODEL 3
REMARK VINA RESULT:      -5.5      9.313     10.361
REMARK  6 active torsions:
REMARK  status: ('A' for Active; 'I' for Inactive)
REMARK    1  A    between atoms: C_6  and  N_1 
REMARK    2  A    between atoms: C_7  and  C_4 
REMARK    3  A    between atoms: C_8  and  C_6 
REMARK    4  A    between atoms: C_11  and  C_6 
REMARK    5  A    between atoms: C_13  and  C_7 
REMARK    6  A    between atoms: C_16  and  C_11 
ROOT
ATOM      1  N   UNL d   1     -39.397  14.795  18.969  0.00  0.00    -0.254 N 
ATOM      2  C   UNL d   1     -39.751  15.215  19.492  0.00  0.00     0.153 A 
ATOM      3  C   UNL d   1     -38.728  14.468  19.304  0.00  0.00     0.272 A 
ATOM      4  C   UNL d   1     -38.681  14.712  20.083  0.00  0.00     0.088 A 
ATOM      5  S   UNL d   1     -39.327  15.182  20.196  0.00  0.00    -0.054 SA
ATOM      6  S   UNL d   1     -40.472  15.625  19.293  0.00  0.00    -0.052 SA
ATOM      7  O   UNL d   1     -38.166  13.961  18.929  0.00  0.00    -0.266 OA
ENDROOT
BRANCH   1   8
ATOM      8  C   UNL d   1     -39.670  14.697  18.177  0.00  0.00     0.132 C 
BRANCH   8   9
ATOM      9  C   UNL d   1     -40.009  14.006  17.932  0.00  0.00     0.228 C 
ATOM     10  O   UNL d   1     -39.583  13.298  17.904  0.00  0.00    -0.643 OA
ATOM     11  O   UNL d   1     -40.813  14.016  17.704  0.00  0.00    -0.643 OA
ENDBRANCH   8   9
BRANCH   8  12
ATOM     12  C   UNL d   1     -39.571  15.360  17.646  0.00  0.00     0.024 C 
BRANCH  12  13
ATOM     13  C   UNL d   1     -39.092  15.263  16.990  0.00  0.00     0.002 A 
ATOM     14  C   UNL d   1     -39.185  14.658  16.483  0.00  0.00     0.000 A 
ATOM     15  C   UNL d   1     -38.678  14.583  15.817  0.00  0.00     0.000 A 
ATOM     16  C   UNL d   1     -38.113  15.127  15.711  0.00  0.00     0.000 A 
ATOM     17  C   UNL d   1     -37.999  15.758  16.220  0.00  0.00     0.000 A 
ATOM     18  C   UNL d   1     -38.500  15.837  16.884  0.00  0.00     0.000 A 
ENDBRANCH  12  13
ENDBRANCH   8  12
ENDBRANCH   1   8
BRANCH   4  19
ATOM     19  C   UNL d   1     -38.070  14.482  20.586  0.00  0.00     0.011 C 
BRANCH  19  20
ATOM     20  C   UNL d   1     -38.207  14.203  21.374  0.00  0.00     0.001 A 
ATOM     21  C   UNL d   1     -38.195  14.734  21.986  0.00  0.00     0.001 A 
ATOM     22  C   UNL d   1     -38.327  14.488  22.768  0.00  0.00     0.007 A 
ATOM     23  C   UNL d   1     -38.478  13.643  22.908  0.00  0.00     0.035 A 
ATOM     24  C   UNL d   1     -38.483  13.133  22.267  0.00  0.00     0.007 A 
ATOM     25 BR   UNL d   1     -38.616  13.359  23.693  0.00  0.00    -0.049 Br
ATOM     26  C   UNL d   1     -38.352  13.402  21.515  0.00  0.00     0.001 A 
ENDBRANCH  19  20
ENDBRANCH   4  19
TORSDOF 6
ENDMDL
MODEL 4
REMARK VINA RESULT:      -4.6      1.427      1.834
REMARK  6 active torsions:
REMARK  status: ('A' for Active; 'I' for Inactive)
REMARK    1  A    between atoms: C_6  and  N_1 
REMARK    2  A    between atoms: C_7  and  C_4 
REMARK    3  A    between atoms: C_8  and  C_6 
REMARK    4  A    between atoms: C_11  and  C_6 
REMARK    5  A    between atoms: C_13  and  C_7 
REMARK    6  A    between atoms: C_16  and  C_11 
ROOT
ATOM      1  N   UNL d   1     -47.668  13.407  22.635  0.00  0.00    -0.254 N 
ATOM      2  C   UNL d   1     -47.175  13.959  22.798  0.00  0.00     0.153 A 
ATOM      3  C   UNL d   1     -47.259  12.705  22.553  0.00  0.00     0.272 A 
ATOM      4  C   UNL d   1     -46.464  12.852  22.677  0.00  0.00     0.088 A 
ATOM      5  S   UNL d   1     -46.417  13.642  22.831  0.00  0.00    -0.054 SA
ATOM      6  S   UNL d   1     -47.452  14.757  22.914  0.00  0.00    -0.052 SA
ATOM      7  O   UNL d   1     -47.581  11.945  22.372  0.00  0.00    -0.266 OA
ENDROOT
BRANCH   1   8
ATOM      8  C   UNL d   1     -48.499  13.523  22.557  0.00  0.00     0.132 C 
BRANCH   8   9
ATOM      9  C   UNL d   1     -48.854  13.545  21.831  0.00  0.00     0.228 C 
ATOM     10  O   UNL d   1     -48.885  12.879  21.342  0.00  0.00    -0.643 OA
ATOM     11  O   UNL d   1     -49.196  14.264  21.576  0.00  0.00    -0.643 OA
ENDBRANCH   8   9
BRANCH   8  12
ATOM     12  C   UNL d   1     -48.951  13.616  23.278  0.00  0.00     0.024 C 
BRANCH  12  13
ATOM     13  C   UNL d   1     -49.639  13.183  23.363  0.00  0.00     0.002 A 
ATOM     14  C   UNL d   1     -49.633  12.409  23.547  0.00  0.00     0.000 A 
ATOM     15  C   UNL d   1     -50.356  11.990  23.628  0.00  0.00     0.000 A 
ATOM     16  C   UNL d   1     -51.035  12.383  23.518  0.00  0.00     0.000 A 
ATOM     17  C   UNL d   1     -51.064  13.179  23.328  0.00  0.00     0.000 A 
ATOM     18  C   UNL d   1     -50.348  13.601  23.246  0.00  0.00     0.000 A 
ENDBRANCH  12  13
ENDBRANCH   8  12
ENDBRANCH   1   8
BRANCH   4  19
ATOM     19  C   UNL d   1     -45.890  12.261  22.635  0.00  0.00     0.011 C 
BRANCH  19  20
ATOM     20  C   UNL d   1     -45.119  12.396  22.311  0.00  0.00     0.001 A 
ATOM     21  C   UNL d   1     -44.473  12.092  22.695  0.00  0.00     0.001 A 
ATOM     22  C   UNL d   1     -43.706  12.209  22.400  0.00  0.00     0.007 A 
ATOM     23  C   UNL d   1     -43.619  12.667  21.667  0.00  0.00     0.035 A 
ATOM     24  C   UNL d   1     -44.292  12.961  21.303  0.00  0.00     0.007 A 
ATOM     25 BR   UNL d   1     -42.851  12.805  21.338  0.00  0.00    -0.049 Br
ATOM     26  C   UNL d   1     -45.027  12.831  21.615  0.00  0.00     0.001 A 
ENDBRANCH  19  20
ENDBRANCH   4  19
TORSDOF 6
ENDMDL
MODEL 5
REMARK VINA RESULT:      -4.5      9.218     10.641
REMARK  6 active torsions:
REMARK  status: ('A' for Active; 'I' for Inactive)
REMARK    1  A    between atoms: C_6  and  N_1 
REMARK    2  A    between atoms: C_7  and  C_4 
REMARK    3  A    between atoms: C_8  and  C_6 
REMARK    4  A    between atoms: C_11  and  C_6 
REMARK    5  A    between atoms: C_13  and  C_7 
REMARK    6  A    between atoms: C_16  and  C_11 
ROOT
ATOM      1  N   UNL d   1     -38.963  14.867  18.736  0.00  0.00    -0.254 N 
ATOM      2  C   UNL d   1     -38.691  15.569  18.831  0.00  0.00     0.153 A 
ATOM      3  C   UNL d   1     -39.409  14.667  19.390  0.00  0.00     0.272 A 
ATOM      4  C   UNL d   1     -39.401  15.296  19.912  0.00  0.00     0.088 A 
ATOM      5  S   UNL d   1     -38.948  15.860  19.556  0.00  0.00    -0.054 SA
ATOM      6  S   UNL d   1     -38.202  15.921  18.228  0.00  0.00    -0.052 SA
ATOM      7  O   UNL d   1     -39.818  13.940  19.525  0.00  0.00    -0.266 OA
ENDROOT
BRANCH   1   8
ATOM      8  C   UNL d   1     -38.816  14.391  18.056  0.00  0.00     0.132 C 
BRANCH   8   9
ATOM      9  C   UNL d   1     -39.376  14.294  17.481  0.00  0.00     0.228 C 
ATOM     10  O   UNL d   1     -40.023  13.791  17.586  0.00  0.00    -0.643 OA
ATOM     11  O   UNL d   1     -39.290  14.717  16.766  0.00  0.00    -0.643 OA
ENDBRANCH   8   9
BRANCH   8  12
ATOM     12  C   UNL d   1     -38.048  14.016  18.001  0.00  0.00     0.024 C 
BRANCH  12  13
ATOM     13  C   UNL d   1     -38.012  13.246  17.729  0.00  0.00     0.002 A 
ATOM     14  C   UNL d   1     -37.988  13.071  16.953  0.00  0.00     0.000 A 
ATOM     15  C   UNL d   1     -37.951  12.270  16.703  0.00  0.00     0.000 A 
ATOM     16  C   UNL d   1     -37.941  11.702  17.254  0.00  0.00     0.000 A 
ATOM     17  C   UNL d   1     -37.964  11.860  18.058  0.00  0.00     0.000 A 
ATOM     18  C   UNL d   1     -38.001  12.654  18.312  0.00  0.00     0.000 A 
ENDBRANCH  12  13
ENDBRANCH   8  12
ENDBRANCH   1   8
BRANCH   4  19
ATOM     19  C   UNL d   1     -39.798  15.281  20.634  0.00  0.00     0.011 C 
BRANCH  19  20
ATOM     20  C   UNL d   1     -39.393  15.225  21.377  0.00  0.00     0.001 A 
ATOM     21  C   UNL d   1     -39.107  15.902  21.719  0.00  0.00     0.001 A 
ATOM     22  C   UNL d   1     -38.706  15.877  22.446  0.00  0.00     0.007 A 
ATOM     23  C   UNL d   1     -38.604  15.102  22.827  0.00  0.00     0.035 A 
ATOM     24  C   UNL d   1     -38.905  14.437  22.454  0.00  0.00     0.007 A 
ATOM     25 BR   UNL d   1     -38.201  15.041  23.568  0.00  0.00    -0.049 Br
ATOM     26  C   UNL d   1     -39.292  14.493  21.745  0.00  0.00     0.001 A 
ENDBRANCH  19  20
ENDBRANCH   4  19
TORSDOF 6
ENDMDL
