MODEL 1
REMARK VINA RESULT:      -7.8      0.000      0.000
REMARK  1 active torsions:
REMARK  status: ('A' for Active; 'I' for Inactive)
REMARK    1  A    between atoms: C_2  and  N_1 
ROOT
ATOM      1  C   UNL d   1     -47.060  12.519  23.139  0.00  0.00     0.130 A 
ATOM      2  C   UNL d   1     -47.417  11.916  23.521  0.00  0.00     0.067 A 
ATOM      3  C   UNL d   1     -48.178  11.664  23.305  0.00  0.00     0.215 A 
ATOM      4  C   UNL d   1     -48.571  12.043  22.686  0.00  0.00     0.120 A 
ATOM      5  C   UNL d   1     -47.439  12.914  22.513  0.00  0.00     0.025 A 
ATOM      6  C   UNL d   1     -48.196  12.678  22.284  0.00  0.00     0.022 A 
ATOM      7  N   UNL d   1     -49.324  11.806  22.460  0.00  0.00    -0.241 NA
ATOM      8  O   UNL d   1     -48.545  11.044  23.698  0.00  0.00    -0.285 OA
ATOM      9  C   UNL d   1     -48.585  13.056  21.668  0.00  0.00     0.003 A 
ATOM     10  C   UNL d   1     -49.703  12.200  21.835  0.00  0.00     0.099 A 
ATOM     11  C   UNL d   1     -49.347  12.803  21.452  0.00  0.00     0.021 A 
ENDROOT
BRANCH   1  12
ATOM     12  N   UNL d   1     -46.311  12.730  23.389  0.00  0.00    -0.114 N 
ATOM     13  O   UNL d   1     -45.696  12.183  23.323  0.00  0.00    -0.532 OA
ATOM     14  O   UNL d   1     -46.186  13.474  23.698  0.00  0.00    -0.532 OA
ENDBRANCH   1  12
TORSDOF 1
ENDMDL
MODEL 2
REMARK VINA RESULT:      -7.7      1.018      2.627
REMARK  1 active torsions:
REMARK  status: ('A' for Active; 'I' for Inactive)
REMARK    1  A    between atoms: C_2  and  N_1 
ROOT
ATOM      1  C   UNL d   1     -48.016  11.969  23.043  0.00  0.00     0.130 A 
ATOM      2  C   UNL d   1     -47.317  11.723  23.338  0.00  0.00     0.067 A 
ATOM      3  C   UNL d   1     -46.670  12.240  23.394  0.00  0.00     0.215 A 
ATOM      4  C   UNL d   1     -46.752  13.021  23.141  0.00  0.00     0.120 A 
ATOM      5  C   UNL d   1     -48.119  12.752  22.782  0.00  0.00     0.025 A 
ATOM      6  C   UNL d   1     -47.488  13.281  22.829  0.00  0.00     0.022 A 
ATOM      7  N   UNL d   1     -46.122  13.546  23.189  0.00  0.00    -0.241 NA
ATOM      8  O   UNL d   1     -45.952  11.987  23.698  0.00  0.00    -0.285 OA
ATOM      9  C   UNL d   1     -47.571  14.058  22.577  0.00  0.00     0.003 A 
ATOM     10  C   UNL d   1     -46.225  14.328  22.929  0.00  0.00     0.099 A 
ATOM     11  C   UNL d   1     -46.924  14.575  22.633  0.00  0.00     0.021 A 
ENDROOT
BRANCH   1  12
ATOM     12  N   UNL d   1     -48.622  11.422  23.008  0.00  0.00    -0.114 N 
ATOM     13  O   UNL d   1     -49.039  11.239  23.697  0.00  0.00    -0.532 OA
ATOM     14  O   UNL d   1     -48.802  11.068  22.296  0.00  0.00    -0.532 OA
ENDBRANCH   1  12
TORSDOF 1
ENDMDL
MODEL 3
REMARK VINA RESULT:      -7.7      1.699      2.885
REMARK  1 active torsions:
REMARK  status: ('A' for Active; 'I' for Inactive)
REMARK    1  A    between atoms: C_2  and  N_1 
ROOT
ATOM      1  C   UNL d   1     -47.972  13.827  22.925  0.00  0.00     0.130 A 
ATOM      2  C   UNL d   1     -47.221  14.097  22.923  0.00  0.00     0.067 A 
ATOM      3  C   UNL d   1     -46.586  13.596  23.115  0.00  0.00     0.215 A 
ATOM      4  C   UNL d   1     -46.735  12.808  23.311  0.00  0.00     0.120 A 
ATOM      5  C   UNL d   1     -48.143  13.038  23.119  0.00  0.00     0.025 A 
ATOM      6  C   UNL d   1     -47.527  12.524  23.312  0.00  0.00     0.022 A 
ATOM      7  N   UNL d   1     -46.120  12.300  23.503  0.00  0.00    -0.241 NA
ATOM      8  O   UNL d   1     -45.814  13.873  23.114  0.00  0.00    -0.285 OA
ATOM      9  C   UNL d   1     -47.677  11.741  23.506  0.00  0.00     0.003 A 
ATOM     10  C   UNL d   1     -46.291  11.510  23.696  0.00  0.00     0.099 A 
ATOM     11  C   UNL d   1     -47.042  11.241  23.698  0.00  0.00     0.021 A 
ENDROOT
BRANCH   1  12
ATOM     12  N   UNL d   1     -48.561  14.359  22.729  0.00  0.00    -0.114 N 
ATOM     13  O   UNL d   1     -48.814  14.408  21.945  0.00  0.00    -0.532 OA
ATOM     14  O   UNL d   1     -48.885  14.830  23.311  0.00  0.00    -0.532 OA
ENDBRANCH   1  12
TORSDOF 1
ENDMDL
MODEL 4
REMARK VINA RESULT:      -7.5      1.345      1.868
REMARK  1 active torsions:
REMARK  status: ('A' for Active; 'I' for Inactive)
REMARK    1  A    between atoms: C_2  and  N_1 
ROOT
ATOM      1  C   UNL d   1     -47.040  13.525  22.717  0.00  0.00     0.130 A 
ATOM      2  C   UNL d   1     -47.338  14.257  22.825  0.00  0.00     0.067 A 
ATOM      3  C   UNL d   1     -48.099  14.453  22.554  0.00  0.00     0.215 A 
ATOM      4  C   UNL d   1     -48.552  13.881  22.168  0.00  0.00     0.120 A 
ATOM      5  C   UNL d   1     -47.480  12.935  22.331  0.00  0.00     0.025 A 
ATOM      6  C   UNL d   1     -48.237  13.110  22.055  0.00  0.00     0.022 A 
ATOM      7  N   UNL d   1     -49.305  14.058  21.894  0.00  0.00    -0.241 NA
ATOM      8  O   UNL d   1     -48.406  15.206  22.664  0.00  0.00    -0.285 OA
ATOM      9  C   UNL d   1     -48.687  12.540  21.671  0.00  0.00     0.003 A 
ATOM     10  C   UNL d   1     -49.746  13.469  21.508  0.00  0.00     0.099 A 
ATOM     11  C   UNL d   1     -49.447  12.736  21.400  0.00  0.00     0.021 A 
ENDROOT
BRANCH   1  12
ATOM     12  N   UNL d   1     -46.287  13.382  23.003  0.00  0.00    -0.114 N 
ATOM     13  O   UNL d   1     -45.637  13.668  22.582  0.00  0.00    -0.532 OA
ATOM     14  O   UNL d   1     -46.194  12.962  23.695  0.00  0.00    -0.532 OA
ENDBRANCH   1  12
TORSDOF 1
ENDMDL
MODEL 5
REMARK VINA RESULT:      -7.4      1.603      1.888
REMARK  1 active torsions:
REMARK  status: ('A' for Active; 'I' for Inactive)
REMARK    1  A    between atoms: C_2  and  N_1 
ROOT
ATOM      1  C   UNL d   1     -46.941  13.585  22.704  0.00  0.00     0.130 A 
ATOM      2  C   UNL d   1     -47.290  13.017  22.267  0.00  0.00     0.067 A 
ATOM      3  C   UNL d   1     -48.066  13.109  21.985  0.00  0.00     0.215 A 
ATOM      4  C   UNL d   1     -48.481  13.800  22.161  0.00  0.00     0.120 A 
ATOM      5  C   UNL d   1     -47.342  14.288  22.892  0.00  0.00     0.025 A 
ATOM      6  C   UNL d   1     -48.113  14.399  22.622  0.00  0.00     0.022 A 
ATOM      7  N   UNL d   1     -49.249  13.908  21.890  0.00  0.00    -0.241 NA
ATOM      8  O   UNL d   1     -48.424  12.525  21.535  0.00  0.00    -0.285 OA
ATOM      9  C   UNL d   1     -48.526  15.087  22.798  0.00  0.00     0.003 A 
ATOM     10  C   UNL d   1     -49.651  14.611  22.078  0.00  0.00     0.099 A 
ATOM     11  C   UNL d   1     -49.301  15.179  22.516  0.00  0.00     0.021 A 
ENDROOT
BRANCH   1  12
ATOM     12  N   UNL d   1     -46.176  13.446  22.958  0.00  0.00    -0.114 N 
ATOM     13  O   UNL d   1     -46.054  13.091  23.693  0.00  0.00    -0.532 OA
ATOM     14  O   UNL d   1     -45.551  13.659  22.479  0.00  0.00    -0.532 OA
ENDBRANCH   1  12
TORSDOF 1
ENDMDL
MODEL 6
REMARK VINA RESULT:      -7.4      1.052      1.467
REMARK  1 active torsions:
REMARK  status: ('A' for Active; 'I' for Inactive)
REMARK    1  A    between atoms: C_2  and  N_1 
ROOT
ATOM      1  C   UNL d   1     -47.152  12.666  23.128  0.00  0.00     0.130 A 
ATOM      2  C   UNL d   1     -47.284  12.883  22.371  0.00  0.00     0.067 A 
ATOM      3  C   UNL d   1     -48.030  12.781  22.020  0.00  0.00     0.215 A 
ATOM      4  C   UNL d   1     -48.644  12.449  22.461  0.00  0.00     0.120 A 
ATOM      5  C   UNL d   1     -47.757  12.331  23.588  0.00  0.00     0.025 A 
ATOM      6  C   UNL d   1     -48.505  12.220  23.258  0.00  0.00     0.022 A 
ATOM      7  N   UNL d   1     -49.387  12.341  22.130  0.00  0.00    -0.241 NA
ATOM      8  O   UNL d   1     -48.165  13.004  21.243  0.00  0.00    -0.285 OA
ATOM      9  C   UNL d   1     -49.114  11.891  23.698  0.00  0.00     0.003 A 
ATOM     10  C   UNL d   1     -49.992  12.006  22.590  0.00  0.00     0.099 A 
ATOM     11  C   UNL d   1     -49.860  11.789  23.347  0.00  0.00     0.021 A 
ENDROOT
BRANCH   1  12
ATOM     12  N   UNL d   1     -46.401  12.787  23.426  0.00  0.00    -0.114 N 
ATOM     13  O   UNL d   1     -45.877  12.151  23.469  0.00  0.00    -0.532 OA
ATOM     14  O   UNL d   1     -46.185  13.533  23.676  0.00  0.00    -0.532 OA
ENDBRANCH   1  12
TORSDOF 1
ENDMDL
MODEL 7
REMARK VINA RESULT:      -7.0      2.325      3.087
REMARK  1 active torsions:
REMARK  status: ('A' for Active; 'I' for Inactive)
REMARK    1  A    between atoms: C_2  and  N_1 
ROOT
ATOM      1  C   UNL d   1     -48.931  14.754  22.911  0.00  0.00     0.130 A 
ATOM      2  C   UNL d   1     -49.210  14.018  23.040  0.00  0.00     0.067 A 
ATOM      3  C   UNL d   1     -48.696  13.365  23.072  0.00  0.00     0.215 A 
ATOM      4  C   UNL d   1     -47.886  13.481  22.967  0.00  0.00     0.120 A 
ATOM      5  C   UNL d   1     -48.119  14.892  22.804  0.00  0.00     0.025 A 
ATOM      6  C   UNL d   1     -47.592  14.257  22.831  0.00  0.00     0.022 A 
ATOM      7  N   UNL d   1     -47.364  12.848  22.995  0.00  0.00    -0.241 NA
ATOM      8  O   UNL d   1     -48.983  12.608  23.204  0.00  0.00    -0.285 OA
ATOM      9  C   UNL d   1     -46.787  14.374  22.727  0.00  0.00     0.003 A 
ATOM     10  C   UNL d   1     -46.552  12.985  22.888  0.00  0.00     0.099 A 
ATOM     11  C   UNL d   1     -46.273  13.721  22.758  0.00  0.00     0.021 A 
ENDROOT
BRANCH   1  12
ATOM     12  N   UNL d   1     -49.477  15.362  22.889  0.00  0.00    -0.114 N 
ATOM     13  O   UNL d   1     -49.663  15.761  23.588  0.00  0.00    -0.532 OA
ATOM     14  O   UNL d   1     -49.826  15.562  22.180  0.00  0.00    -0.532 OA
ENDBRANCH   1  12
TORSDOF 1
ENDMDL
MODEL 8
REMARK VINA RESULT:      -6.6      1.517      2.519
REMARK  1 active torsions:
REMARK  status: ('A' for Active; 'I' for Inactive)
REMARK    1  A    between atoms: C_2  and  N_1 
ROOT
ATOM      1  C   UNL d   1     -48.518  12.366  22.893  0.00  0.00     0.130 A 
ATOM      2  C   UNL d   1     -47.767  12.635  22.921  0.00  0.00     0.067 A 
ATOM      3  C   UNL d   1     -47.601  13.446  22.854  0.00  0.00     0.215 A 
ATOM      4  C   UNL d   1     -48.222  13.981  22.757  0.00  0.00     0.120 A 
ATOM      5  C   UNL d   1     -49.157  12.888  22.797  0.00  0.00     0.025 A 
ATOM      6  C   UNL d   1     -49.013  13.697  22.728  0.00  0.00     0.022 A 
ATOM      7  N   UNL d   1     -48.076  14.786  22.689  0.00  0.00    -0.241 NA
ATOM      8  O   UNL d   1     -46.830  13.723  22.882  0.00  0.00    -0.285 OA
ATOM      9  C   UNL d   1     -49.632  14.228  22.632  0.00  0.00     0.003 A 
ATOM     10  C   UNL d   1     -48.715  15.308  22.592  0.00  0.00     0.099 A 
ATOM     11  C   UNL d   1     -49.465  15.039  22.564  0.00  0.00     0.021 A 
ENDROOT
BRANCH   1  12
ATOM     12  N   UNL d   1     -48.629  11.559  22.964  0.00  0.00    -0.114 N 
ATOM     13  O   UNL d   1     -48.840  11.245  23.698  0.00  0.00    -0.532 OA
ATOM     14  O   UNL d   1     -48.529  11.082  22.310  0.00  0.00    -0.532 OA
ENDBRANCH   1  12
TORSDOF 1
ENDMDL
MODEL 9
REMARK VINA RESULT:      -5.4      9.746     10.743
REMARK  1 active torsions:
REMARK  status: ('A' for Active; 'I' for Inactive)
REMARK    1  A    between atoms: C_2  and  N_1 
ROOT
ATOM      1  C   UNL d   1     -40.241  14.983  17.150  0.00  0.00     0.130 A 
ATOM      2  C   UNL d   1     -39.721  15.294  16.630  0.00  0.00     0.067 A 
ATOM      3  C   UNL d   1     -39.000  14.914  16.467  0.00  0.00     0.215 A 
ATOM      4  C   UNL d   1     -38.820  14.205  16.848  0.00  0.00     0.120 A 
ATOM      5  C   UNL d   1     -40.078  14.270  17.544  0.00  0.00     0.025 A 
ATOM      6  C   UNL d   1     -39.368  13.877  17.396  0.00  0.00     0.022 A 
ATOM      7  N   UNL d   1     -38.113  13.816  16.698  0.00  0.00    -0.241 NA
ATOM      8  O   UNL d   1     -38.466  15.233  15.932  0.00  0.00    -0.285 OA
ATOM      9  C   UNL d   1     -39.190  13.172  17.775  0.00  0.00     0.003 A 
ATOM     10  C   UNL d   1     -37.949  13.103  17.092  0.00  0.00     0.099 A 
ATOM     11  C   UNL d   1     -38.469  12.793  17.612  0.00  0.00     0.021 A 
ENDROOT
BRANCH   1  12
ATOM     12  N   UNL d   1     -40.936  15.395  17.276  0.00  0.00    -0.114 N 
ATOM     13  O   UNL d   1     -41.572  15.277  16.764  0.00  0.00    -0.532 OA
ATOM     14  O   UNL d   1     -40.985  15.914  17.903  0.00  0.00    -0.532 OA
ENDBRANCH   1  12
TORSDOF 1
ENDMDL
