MODEL 1
REMARK VINA RESULT:       0.1      0.000      0.000
REMARK  7 active torsions:
REMARK  status: ('A' for Active; 'I' for Inactive)
REMARK    1  A    between atoms: S_10  and  C_5 
REMARK    2  A    between atoms: C_11  and  N_8 
REMARK    3  A    between atoms: C_15  and  S_10 
REMARK    4  A    between atoms: C_19  and  C_11 
REMARK    5  A    between atoms: C_14  and  C_15 
REMARK    6  A    between atoms: C_17  and  C_14 
REMARK    7  A    between atoms: C_20  and  C_19 
ROOT
ATOM      1  C   UNL d   1      59.195  -0.424  30.195  0.00  0.00     0.174 A 
ATOM      2  C   UNL d   1      59.067  -1.029  29.650  0.00  0.00     0.159 A 
ATOM      3  N   UNL d   1      58.582  -0.430  30.738  0.00  0.00    -0.203 NA
ATOM      4  N   UNL d   1      59.873   0.068  30.125  0.00  0.00    -0.239 N 
ATOM      5  C   UNL d   1      58.088  -1.056  30.497  0.00  0.00     0.181 A 
ATOM      6  C   UNL d   1      60.397  -0.041  29.536  0.00  0.00     0.358 A 
ATOM      7  N   UNL d   1      60.264  -0.670  28.969  0.00  0.00    -0.152 NA
ATOM      8  N   UNL d   1      58.377  -1.396  29.868  0.00  0.00    -0.279 N 
ATOM      9  C   UNL d   1      59.613  -1.155  29.023  0.00  0.00     0.302 A 
ATOM     10  O   UNL d   1      61.060   0.458  29.486  0.00  0.00    -0.244 OA
ATOM     11  O   UNL d   1      59.507  -1.754  28.465  0.00  0.00    -0.263 OA
ATOM     12  C   UNL d   1      60.024   0.680  30.657  0.00  0.00     0.105 C 
ENDROOT
BRANCH   5  13
ATOM     13  S   UNL d   1      57.382  -1.283  30.883  0.00  0.00    -0.046 SA
BRANCH  13  14
ATOM     14  C   UNL d   1      57.007  -0.772  31.406  0.00  0.00     0.080 C 
BRANCH  14  15
ATOM     15  C   UNL d   1      56.652  -1.066  32.097  0.00  0.00     0.202 C 
ATOM     16  O   UNL d   1      56.649  -1.865  32.226  0.00  0.00    -0.286 OA
BRANCH  15  17
ATOM     17  C   UNL d   1      56.310  -0.544  32.637  0.00  0.00     0.040 A 
ATOM     18  C   UNL d   1      55.503  -0.455  32.677  0.00  0.00     0.003 A 
ATOM     19  C   UNL d   1      55.163   0.066  33.217  0.00  0.00     0.000 A 
ATOM     20  C   UNL d   1      55.644   0.512  33.735  0.00  0.00     0.000 A 
ATOM     21  C   UNL d   1      56.458   0.410  33.683  0.00  0.00     0.000 A 
ATOM     22  C   UNL d   1      56.794  -0.108  33.144  0.00  0.00     0.003 A 
ENDBRANCH  15  17
ENDBRANCH  14  15
ENDBRANCH  13  14
ENDBRANCH   5  13
BRANCH   8  23
ATOM     23  C   UNL d   1      58.016  -2.057  29.471  0.00  0.00     0.082 C 
BRANCH  23  24
ATOM     24  C   UNL d   1      58.275  -2.829  29.593  0.00  0.00     0.019 C 
BRANCH  24  25
ATOM     25  C   UNL d   1      58.216  -3.379  29.026  0.00  0.00     0.002 C 
ATOM     26  C   UNL d   1      57.585  -3.354  28.496  0.00  0.00     0.000 C 
ATOM     27  C   UNL d   1      58.757  -3.958  28.958  0.00  0.00     0.000 C 
ENDBRANCH  24  25
ENDBRANCH  23  24
ENDBRANCH   8  23
TORSDOF 7
ENDMDL
MODEL 2
REMARK VINA RESULT:       0.2      8.332      8.794
REMARK  7 active torsions:
REMARK  status: ('A' for Active; 'I' for Inactive)
REMARK    1  A    between atoms: S_10  and  C_5 
REMARK    2  A    between atoms: C_11  and  N_8 
REMARK    3  A    between atoms: C_15  and  S_10 
REMARK    4  A    between atoms: C_19  and  C_11 
REMARK    5  A    between atoms: C_14  and  C_15 
REMARK    6  A    between atoms: C_17  and  C_14 
REMARK    7  A    between atoms: C_20  and  C_19 
ROOT
ATOM      1  C   UNL d   1      59.677  -9.758  30.123  0.00  0.00     0.174 A 
ATOM      2  C   UNL d   1      58.947  -9.769  29.740  0.00  0.00     0.159 A 
ATOM      3  N   UNL d   1      59.545  -9.772  30.931  0.00  0.00    -0.203 NA
ATOM      4  N   UNL d   1      60.387  -9.737  29.674  0.00  0.00    -0.239 N 
ATOM      5  C   UNL d   1      58.717  -9.791  31.013  0.00  0.00     0.181 A 
ATOM      6  C   UNL d   1      60.366  -9.727  28.878  0.00  0.00     0.358 A 
ATOM      7  N   UNL d   1      59.607  -9.738  28.480  0.00  0.00    -0.152 NA
ATOM      8  N   UNL d   1      58.380  -9.789  30.320  0.00  0.00    -0.279 N 
ATOM      9  C   UNL d   1      58.912  -9.758  28.900  0.00  0.00     0.302 A 
ATOM     10  O   UNL d   1      61.081  -9.706  28.455  0.00  0.00    -0.244 OA
ATOM     11  O   UNL d   1      58.194  -9.768  28.492  0.00  0.00    -0.263 OA
ATOM     12  C   UNL d   1      61.130  -9.726  30.033  0.00  0.00     0.105 C 
ENDROOT
BRANCH   5  13
ATOM     13  S   UNL d   1      58.309  -9.809  31.743  0.00  0.00    -0.046 SA
BRANCH  13  14
ATOM     14  C   UNL d   1      58.674  -9.553  32.433  0.00  0.00     0.080 C 
BRANCH  14  15
ATOM     15  C   UNL d   1      58.245  -9.509  33.143  0.00  0.00     0.202 C 
ATOM     16  O   UNL d   1      57.462  -9.718  33.141  0.00  0.00    -0.286 OA
BRANCH  15  17
ATOM     17  C   UNL d   1      58.617  -9.257  33.834  0.00  0.00     0.040 A 
ATOM     18  C   UNL d   1      58.534  -8.493  34.098  0.00  0.00     0.003 A 
ATOM     19  C   UNL d   1      58.906  -8.241  34.788  0.00  0.00     0.000 A 
ATOM     20  C   UNL d   1      59.377  -8.771  35.232  0.00  0.00     0.000 A 
ATOM     21  C   UNL d   1      59.452  -9.541  34.953  0.00  0.00     0.000 A 
ATOM     22  C   UNL d   1      59.080  -9.788  34.265  0.00  0.00     0.003 A 
ENDBRANCH  15  17
ENDBRANCH  14  15
ENDBRANCH  13  14
ENDBRANCH   5  13
BRANCH   8  23
ATOM     23  C   UNL d   1      57.538  -9.805  30.194  0.00  0.00     0.082 C 
BRANCH  23  24
ATOM     24  C   UNL d   1      57.118  -9.126  29.996  0.00  0.00     0.019 C 
BRANCH  24  25
ATOM     25  C   UNL d   1      56.426  -9.165  29.612  0.00  0.00     0.002 C 
ATOM     26  C   UNL d   1      56.170  -8.522  29.163  0.00  0.00     0.000 C 
ATOM     27  C   UNL d   1      55.971  -9.815  29.651  0.00  0.00     0.000 C 
ENDBRANCH  24  25
ENDBRANCH  23  24
ENDBRANCH   8  23
TORSDOF 7
ENDMDL
MODEL 3
REMARK VINA RESULT:       0.5      1.634      4.882
REMARK  7 active torsions:
REMARK  status: ('A' for Active; 'I' for Inactive)
REMARK    1  A    between atoms: S_10  and  C_5 
REMARK    2  A    between atoms: C_11  and  N_8 
REMARK    3  A    between atoms: C_15  and  S_10 
REMARK    4  A    between atoms: C_19  and  C_11 
REMARK    5  A    between atoms: C_14  and  C_15 
REMARK    6  A    between atoms: C_17  and  C_14 
REMARK    7  A    between atoms: C_20  and  C_19 
ROOT
ATOM      1  C   UNL d   1      56.773  -0.429  31.898  0.00  0.00     0.174 A 
ATOM      2  C   UNL d   1      57.338   0.033  32.282  0.00  0.00     0.159 A 
ATOM      3  N   UNL d   1      57.003  -0.523  31.118  0.00  0.00    -0.203 NA
ATOM      4  N   UNL d   1      56.104  -0.711  32.320  0.00  0.00    -0.239 N 
ATOM      5  C   UNL d   1      57.720  -0.104  31.053  0.00  0.00     0.181 A 
ATOM      6  C   UNL d   1      56.005  -0.539  33.091  0.00  0.00     0.358 A 
ATOM      7  N   UNL d   1      56.592  -0.059  33.491  0.00  0.00    -0.152 NA
ATOM      8  N   UNL d   1      57.905   0.213  31.731  0.00  0.00    -0.279 N 
ATOM      9  C   UNL d   1      57.245   0.222  33.097  0.00  0.00     0.302 A 
ATOM     10  O   UNL d   1      55.335  -0.829  33.488  0.00  0.00    -0.244 OA
ATOM     11  O   UNL d   1      57.796   0.682  33.504  0.00  0.00    -0.263 OA
ATOM     12  C   UNL d   1      55.524  -1.174  31.959  0.00  0.00     0.105 C 
ENDROOT
BRANCH   5  13
ATOM     13  S   UNL d   1      58.174  -0.038  30.354  0.00  0.00    -0.046 SA
BRANCH  13  14
ATOM     14  C   UNL d   1      57.960  -0.450  29.676  0.00  0.00     0.080 C 
BRANCH  14  15
ATOM     15  C   UNL d   1      58.435  -0.411  28.995  0.00  0.00     0.202 C 
ATOM     16  O   UNL d   1      58.381   0.241  28.517  0.00  0.00    -0.286 OA
BRANCH  15  17
ATOM     17  C   UNL d   1      58.949  -1.030  28.816  0.00  0.00     0.040 A 
ATOM     18  C   UNL d   1      58.665  -1.774  28.651  0.00  0.00     0.003 A 
ATOM     19  C   UNL d   1      59.179  -2.392  28.472  0.00  0.00     0.000 A 
ATOM     20  C   UNL d   1      60.006  -2.264  28.457  0.00  0.00     0.000 A 
ATOM     21  C   UNL d   1      60.277  -1.507  28.625  0.00  0.00     0.000 A 
ATOM     22  C   UNL d   1      59.763  -0.893  28.803  0.00  0.00     0.003 A 
ENDBRANCH  15  17
ENDBRANCH  14  15
ENDBRANCH  13  14
ENDBRANCH   5  13
BRANCH   8  23
ATOM     23  C   UNL d   1      58.603   0.682  31.868  0.00  0.00     0.082 C 
BRANCH  23  24
ATOM     24  C   UNL d   1      59.345   0.437  31.609  0.00  0.00     0.019 C 
BRANCH  24  25
ATOM     25  C   UNL d   1      60.000   0.591  32.027  0.00  0.00     0.002 C 
ATOM     26  C   UNL d   1      60.722   0.682  31.637  0.00  0.00     0.000 C 
ATOM     27  C   UNL d   1      59.976   0.661  32.818  0.00  0.00     0.000 C 
ENDBRANCH  24  25
ENDBRANCH  23  24
ENDBRANCH   8  23
TORSDOF 7
ENDMDL
MODEL 4
REMARK VINA RESULT:       0.8      1.885      2.513
REMARK  7 active torsions:
REMARK  status: ('A' for Active; 'I' for Inactive)
REMARK    1  A    between atoms: S_10  and  C_5 
REMARK    2  A    between atoms: C_11  and  N_8 
REMARK    3  A    between atoms: C_15  and  S_10 
REMARK    4  A    between atoms: C_19  and  C_11 
REMARK    5  A    between atoms: C_14  and  C_15 
REMARK    6  A    between atoms: C_17  and  C_14 
REMARK    7  A    between atoms: C_20  and  C_19 
ROOT
ATOM      1  C   UNL d   1      59.078   0.672  32.319  0.00  0.00     0.174 A 
ATOM      2  C   UNL d   1      59.181   0.667  31.501  0.00  0.00     0.159 A 
ATOM      3  N   UNL d   1      58.274   0.671  32.479  0.00  0.00    -0.203 NA
ATOM      4  N   UNL d   1      59.747   0.677  32.827  0.00  0.00    -0.239 N 
ATOM      5  C   UNL d   1      57.907   0.665  31.731  0.00  0.00     0.181 A 
ATOM      6  C   UNL d   1      60.485   0.677  32.529  0.00  0.00     0.358 A 
ATOM      7  N   UNL d   1      60.593   0.672  31.679  0.00  0.00    -0.152 NA
ATOM      8  N   UNL d   1      58.439   0.663  31.173  0.00  0.00    -0.279 N 
ATOM      9  C   UNL d   1      59.956   0.667  31.174  0.00  0.00     0.302 A 
ATOM     10  O   UNL d   1      61.132   0.682  33.051  0.00  0.00    -0.244 OA
ATOM     11  O   UNL d   1      60.086   0.662  30.359  0.00  0.00    -0.263 OA
ATOM     12  C   UNL d   1      59.671   0.682  33.649  0.00  0.00     0.105 C 
ENDROOT
BRANCH   5  13
ATOM     13  S   UNL d   1      57.080   0.662  31.604  0.00  0.00    -0.046 SA
BRANCH  13  14
ATOM     14  C   UNL d   1      56.560   0.680  32.240  0.00  0.00     0.080 C 
BRANCH  14  15
ATOM     15  C   UNL d   1      55.975   0.096  32.319  0.00  0.00     0.202 C 
ATOM     16  O   UNL d   1      55.912  -0.476  31.747  0.00  0.00    -0.286 OA
BRANCH  15  17
ATOM     17  C   UNL d   1      55.471   0.103  32.972  0.00  0.00     0.040 A 
ATOM     18  C   UNL d   1      54.882   0.660  33.037  0.00  0.00     0.003 A 
ATOM     19  C   UNL d   1      54.379   0.667  33.689  0.00  0.00     0.000 A 
ATOM     20  C   UNL d   1      54.467   0.099  34.298  0.00  0.00     0.000 A 
ATOM     21  C   UNL d   1      55.067  -0.457  34.217  0.00  0.00     0.000 A 
ATOM     22  C   UNL d   1      55.566  -0.461  33.566  0.00  0.00     0.003 A 
ENDBRANCH  15  17
ENDBRANCH  14  15
ENDBRANCH  13  14
ENDBRANCH   5  13
BRANCH   8  23
ATOM     23  C   UNL d   1      58.262   0.657  30.340  0.00  0.00     0.082 C 
BRANCH  23  24
ATOM     24  C   UNL d   1      58.035  -0.032  29.951  0.00  0.00     0.019 C 
BRANCH  24  25
ATOM     25  C   UNL d   1      57.862  -0.033  29.178  0.00  0.00     0.002 C 
ATOM     26  C   UNL d   1      57.332   0.524  28.877  0.00  0.00     0.000 C 
ATOM     27  C   UNL d   1      58.190  -0.562  28.684  0.00  0.00     0.000 C 
ENDBRANCH  24  25
ENDBRANCH  23  24
ENDBRANCH   8  23
TORSDOF 7
ENDMDL
