MODEL 1
REMARK VINA RESULT:      76.6      0.000      0.000
REMARK  6 active torsions:
REMARK  status: ('A' for Active; 'I' for Inactive)
REMARK    1  A    between atoms: C_11  and  N_3 
REMARK    2  A    between atoms: C_10  and  C_4 
REMARK    3  A    between atoms: C_18  and  C_11 
REMARK    4  A    between atoms: O_21  and  C_13 
REMARK    5  A    between atoms: O_22  and  C_15 
REMARK    6  A    between atoms: C_23  and  C_18 
ROOT
ATOM      1  N   UNL d   1      45.378 -16.049  44.467  0.00  0.00    -0.122 N 
ATOM      2  C   UNL d   1      45.887 -16.702  44.466  0.00  0.00     0.741 A 
ATOM      3  N   UNL d   1      45.586 -17.465  44.628  0.00  0.00    -0.103 N 
ATOM      4  C   UNL d   1      45.823 -15.372  44.290  0.00  0.00     0.185 A 
ATOM      5  C   UNL d   1      44.780 -17.566  44.789  0.00  0.00     0.280 A 
ATOM      6  N   UNL d   1      46.646 -16.436  44.290  0.00  0.00     0.045 NA
ATOM      7  C   UNL d   1      44.570 -16.148  44.628  0.00  0.00     0.087 A 
ATOM      8  N   UNL d   1      46.611 -15.609  44.180  0.00  0.00    -0.114 NA
ATOM      9  C   UNL d   1      44.281 -16.905  44.787  0.00  0.00     0.074 A 
ATOM     10  O   UNL d   1      44.484 -18.319  44.950  0.00  0.00    -0.266 OA
ATOM     11  C   UNL d   1      43.472 -17.003  44.948  0.00  0.00     0.006 A 
ATOM     12  C   UNL d   1      44.066 -15.497  44.628  0.00  0.00     0.018 A 
ATOM     13  C   UNL d   1      42.968 -16.353  44.949  0.00  0.00     0.000 A 
ATOM     14  C   UNL d   1      43.265 -15.600  44.788  0.00  0.00     0.002 A 
ENDROOT
BRANCH   4  15
ATOM     15  C   UNL d   1      45.536 -14.599  44.234  0.00  0.00     0.039 A 
ATOM     16  C   UNL d   1      45.861 -14.082  43.694  0.00  0.00     0.029 A 
ATOM     17  C   UNL d   1      45.577 -13.312  43.636  0.00  0.00     0.116 A 
ATOM     18  C   UNL d   1      44.956 -13.063  44.130  0.00  0.00     0.116 A 
ATOM     19  C   UNL d   1      44.629 -13.589  44.676  0.00  0.00     0.026 A 
ATOM     20  C   UNL d   1      44.917 -14.363  44.732  0.00  0.00     0.005 A 
BRANCH  17  21
ATOM     21  O   UNL d   1      45.904 -12.798  43.095  0.00  0.00    -0.326 OA
ATOM     22  C   UNL d   1      45.519 -12.090  42.905  0.00  0.00     0.181 C 
ENDBRANCH  17  21
BRANCH  18  23
ATOM     23  O   UNL d   1      44.672 -12.293  44.071  0.00  0.00    -0.326 OA
ATOM     24  C   UNL d   1      44.082 -12.115  43.519  0.00  0.00     0.181 C 
ENDBRANCH  18  23
ENDBRANCH   4  15
BRANCH   3  25
ATOM     25  C   UNL d   1      46.090 -18.117  44.628  0.00  0.00     0.101 C 
BRANCH  25  26
ATOM     26  C   UNL d   1      45.842 -18.827  44.289  0.00  0.00     0.020 C 
BRANCH  26  27
ATOM     27  C   UNL d   1      45.963 -18.972  43.481  0.00  0.00     0.002 A 
ATOM     28  C   UNL d   1      46.527 -18.537  43.064  0.00  0.00     0.000 A 
ATOM     29  C   UNL d   1      46.643 -18.682  42.274  0.00  0.00     0.000 A 
ATOM     30  C   UNL d   1      46.205 -19.252  41.900  0.00  0.00     0.000 A 
ATOM     31  C   UNL d   1      45.642 -19.690  42.307  0.00  0.00     0.000 A 
ATOM     32  C   UNL d   1      45.526 -19.542  43.107  0.00  0.00     0.000 A 
ENDBRANCH  26  27
ENDBRANCH  25  26
ENDBRANCH   3  25
TORSDOF 6
ENDMDL
