MODEL 1
REMARK VINA RESULT:      69.0      0.000      0.000
REMARK  5 active torsions:
REMARK  status: ('A' for Active; 'I' for Inactive)
REMARK    1  A    between atoms: C_7  and  N_2 
REMARK    2  A    between atoms: C_14  and  C_7 
REMARK    3  A    between atoms: O_10  and  C_9 
REMARK    4  A    between atoms: C_11  and  O_10 
REMARK    5  A    between atoms: C_13  and  C_11 
ROOT
ATOM      1  C   UNL d   1      58.196  49.668  51.338  0.00  0.00     0.265 A 
ATOM      2  N   UNL d   1      57.981  49.662  50.541  0.00  0.00    -0.272 N 
ATOM      3  C   UNL d   1      58.989  49.636  51.548  0.00  0.00     0.059 A 
ATOM      4  C   UNL d   1      59.571  49.597  50.965  0.00  0.00     0.029 A 
ATOM      5  C   UNL d   1      59.360  49.590  50.171  0.00  0.00     0.021 A 
ATOM      6  C   UNL d   1      58.563  49.623  49.958  0.00  0.00     0.083 A 
ATOM      7  O   UNL d   1      57.614  49.707  51.921  0.00  0.00    -0.267 OA
ATOM      8  C   UNL d   1      60.368  49.564  51.178  0.00  0.00     0.100 A 
ATOM      9  C   UNL d   1      59.204  49.642  52.345  0.00  0.00     0.005 A 
ATOM     10  C   UNL d   1      60.000  49.609  52.559  0.00  0.00     0.002 A 
ATOM     11  C   UNL d   1      60.582  49.570  51.975  0.00  0.00     0.025 A 
ENDROOT
BRANCH   8  12
ATOM     12  O   UNL d   1      60.950  49.525  50.595  0.00  0.00    -0.305 OA
BRANCH  12  13
ATOM     13  C   UNL d   1      61.610  49.042  50.703  0.00  0.00     0.122 C 
BRANCH  13  14
ATOM     14  C   UNL d   1      61.608  48.270  50.412  0.00  0.00     0.025 A 
ATOM     15  C   UNL d   1      61.873  48.117  49.645  0.00  0.00     0.004 A 
ATOM     16  C   UNL d   1      61.871  47.345  49.354  0.00  0.00     0.030 A 
ATOM     17  C   UNL d   1      61.604  46.726  49.829  0.00  0.00     0.140 A 
ATOM     18  C   UNL d   1      61.339  46.878  50.596  0.00  0.00     0.030 A 
ATOM     19  F   UNL d   1      61.602  45.954  49.538  0.00  0.00    -0.204 F 
ATOM     20  C   UNL d   1      61.341  47.650  50.887  0.00  0.00     0.004 A 
ENDBRANCH  13  14
ENDBRANCH  12  13
ENDBRANCH   8  12
BRANCH   2  21
ATOM     21  C   UNL d   1      57.175  49.696  50.330  0.00  0.00     0.083 C 
BRANCH  21  22
ATOM     22  C   UNL d   1      56.804  49.039  49.996  0.00  0.00     0.018 A 
ATOM     23  C   UNL d   1      56.753  48.972  49.177  0.00  0.00     0.002 A 
ATOM     24  C   UNL d   1      56.383  48.315  48.843  0.00  0.00     0.000 A 
ATOM     25  C   UNL d   1      56.065  47.728  49.329  0.00  0.00     0.000 A 
ATOM     26  C   UNL d   1      56.119  47.801  50.145  0.00  0.00     0.000 A 
ATOM     27  C   UNL d   1      56.489  48.458  50.479  0.00  0.00     0.002 A 
ENDBRANCH  21  22
ENDBRANCH   2  21
TORSDOF 5
ENDMDL
