MODEL 1
REMARK VINA RESULT:      38.6      0.000      0.000
REMARK  4 active torsions:
REMARK  status: ('A' for Active; 'I' for Inactive)
REMARK    1  A    between atoms: N_5  and  C_1 
REMARK    2  A    between atoms: N_8  and  C_3 
REMARK    3  A    between atoms: C_13  and  N_8 
REMARK    4  A    between atoms: C_12  and  C_13 
ROOT
ATOM      1  C   UNL d   1      13.934  14.547  -3.228  0.00  0.00     0.200 A 
ATOM      2  C   UNL d   1      13.545  14.850  -3.888  0.00  0.00     0.288 A 
ATOM      3  C   UNL d   1      13.943  13.728  -3.079  0.00  0.00     0.109 A 
ATOM      4  N   UNL d   1      13.158  14.330  -4.408  0.00  0.00    -0.270 N 
ATOM      5  C   UNL d   1      13.554  13.215  -3.605  0.00  0.00     0.036 A 
ATOM      6  C   UNL d   1      13.163  13.518  -4.267  0.00  0.00     0.069 A 
ATOM      7  O   UNL d   1      13.540  15.662  -4.028  0.00  0.00    -0.265 OA
ATOM      8  C   UNL d   1      12.769  14.632  -5.068  0.00  0.00     0.102 C 
ATOM      9  C   UNL d   1      13.559  12.402  -3.464  0.00  0.00     0.003 A 
ATOM     10  C   UNL d   1      12.778  13.006  -4.787  0.00  0.00     0.018 A 
ATOM     11  C   UNL d   1      13.173  11.892  -3.986  0.00  0.00     0.000 A 
ATOM     12  C   UNL d   1      12.783  12.193  -4.646  0.00  0.00     0.002 A 
ENDROOT
BRANCH   3  13
ATOM     13  N   UNL d   1      14.332  13.425  -2.420  0.00  0.00    -0.242 NA
BRANCH  13  14
ATOM     14  C   UNL d   1      13.993  12.812  -1.985  0.00  0.00     0.100 C 
BRANCH  14  15
ATOM     15  C   UNL d   1      14.386  12.506  -1.329  0.00  0.00     0.030 A 
ATOM     16  C   UNL d   1      13.961  12.085  -0.761  0.00  0.00     0.059 A 
ATOM     17 CL   UNL d   1      13.149  11.968  -0.845  0.00  0.00    -0.082 Cl
ATOM     18  C   UNL d   1      14.352  11.779  -0.104  0.00  0.00     0.011 A 
ATOM     19  C   UNL d   1      15.170  11.895  -0.016  0.00  0.00     0.001 A 
ATOM     20  C   UNL d   1      15.588  12.318  -0.587  0.00  0.00     0.000 A 
ATOM     21  C   UNL d   1      15.196  12.623  -1.244  0.00  0.00     0.002 A 
ENDBRANCH  14  15
ENDBRANCH  13  14
ENDBRANCH   3  13
BRANCH   1  22
ATOM     22  N   UNL d   1      14.323  15.060  -2.703  0.00  0.00    -0.107 N 
ATOM     23  O   UNL d   1      14.038  15.153  -1.935  0.00  0.00    -0.531 OA
ATOM     24  O   UNL d   1      14.994  15.477  -2.948  0.00  0.00    -0.531 OA
ENDBRANCH   1  22
TORSDOF 4
ENDMDL
MODEL 2
REMARK VINA RESULT:      39.6      1.910      3.931
REMARK  4 active torsions:
REMARK  status: ('A' for Active; 'I' for Inactive)
REMARK    1  A    between atoms: N_5  and  C_1 
REMARK    2  A    between atoms: N_8  and  C_3 
REMARK    3  A    between atoms: C_13  and  N_8 
REMARK    4  A    between atoms: C_12  and  C_13 
ROOT
ATOM      1  C   UNL d   1      14.668  13.000  -1.641  0.00  0.00     0.200 A 
ATOM      2  C   UNL d   1      14.896  13.262  -0.894  0.00  0.00     0.288 A 
ATOM      3  C   UNL d   1      14.542  13.542  -2.261  0.00  0.00     0.109 A 
ATOM      4  N   UNL d   1      15.001  14.075  -0.760  0.00  0.00    -0.270 N 
ATOM      5  C   UNL d   1      14.649  14.353  -2.118  0.00  0.00     0.036 A 
ATOM      6  C   UNL d   1      14.878  14.618  -1.369  0.00  0.00     0.069 A 
ATOM      7  O   UNL d   1      15.019  12.720  -0.286  0.00  0.00    -0.265 OA
ATOM      8  C   UNL d   1      15.229  14.338  -0.014  0.00  0.00     0.102 C 
ATOM      9  C   UNL d   1      14.527  14.896  -2.727  0.00  0.00     0.003 A 
ATOM     10  C   UNL d   1      14.984  15.423  -1.232  0.00  0.00     0.018 A 
ATOM     11  C   UNL d   1      14.633  15.703  -2.587  0.00  0.00     0.000 A 
ATOM     12  C   UNL d   1      14.861  15.966  -1.841  0.00  0.00     0.002 A 
ENDROOT
BRANCH   3  13
ATOM     13  N   UNL d   1      14.314  13.280  -3.007  0.00  0.00    -0.242 NA
BRANCH  13  14
ATOM     14  C   UNL d   1      13.516  13.263  -3.214  0.00  0.00     0.100 C 
BRANCH  14  15
ATOM     15  C   UNL d   1      13.282  12.930  -3.930  0.00  0.00     0.030 A 
ATOM     16  C   UNL d   1      13.003  13.418  -4.533  0.00  0.00     0.059 A 
ATOM     17 CL   UNL d   1      12.955  14.234  -4.425  0.00  0.00    -0.082 Cl
ATOM     18  C   UNL d   1      12.769  13.086  -5.249  0.00  0.00     0.011 A 
ATOM     19  C   UNL d   1      12.816  12.264  -5.362  0.00  0.00     0.001 A 
ATOM     20  C   UNL d   1      13.097  11.782  -4.754  0.00  0.00     0.000 A 
ATOM     21  C   UNL d   1      13.330  12.115  -4.038  0.00  0.00     0.002 A 
ENDBRANCH  14  15
ENDBRANCH  13  14
ENDBRANCH   3  13
BRANCH   1  22
ATOM     22  N   UNL d   1      14.561  12.189  -1.783  0.00  0.00    -0.107 N 
ATOM     23  O   UNL d   1      15.071  11.791  -2.293  0.00  0.00    -0.531 OA
ATOM     24  O   UNL d   1      13.944  11.779  -1.413  0.00  0.00    -0.531 OA
ENDBRANCH   1  22
TORSDOF 4
ENDMDL
