MODEL 1
REMARK VINA RESULT:      86.9      0.000      0.000
REMARK  4 active torsions:
REMARK  status: ('A' for Active; 'I' for Inactive)
REMARK    1  A    between atoms: N_2  and  C_9 
REMARK    2  A    between atoms: C_11  and  C_5 
REMARK    3  A    between atoms: C_6  and  C_7 
REMARK       I    between atoms: C_7  and  N_10 
REMARK    4  A    between atoms: N_10  and  C_21 
ROOT
ATOM      1  C   UNL d   1      59.526  49.635  50.419  0.00  0.00     0.019 A 
ATOM      2  C   UNL d   1      59.714  49.707  51.223  0.00  0.00     0.003 A 
ATOM      3  C   UNL d   1      60.122  49.560  49.854  0.00  0.00     0.003 A 
ATOM      4  C   UNL d   1      61.104  49.628  50.892  0.00  0.00     0.085 A 
ATOM      5  C   UNL d   1      60.909  49.557  50.095  0.00  0.00     0.019 A 
ATOM      6  C   UNL d   1      60.505  49.702  51.455  0.00  0.00     0.019 A 
ENDROOT
BRANCH   4   7
ATOM      7  N   UNL d   1      61.896  49.624  51.133  0.00  0.00    -0.208 NA
ATOM      8  C   UNL d   1      62.192  48.986  51.569  0.00  0.00     0.281 C 
ATOM      9  O   UNL d   1      62.984  48.988  51.807  0.00  0.00    -0.265 OA
BRANCH   8  10
ATOM     10  C   UNL d   1      61.697  48.355  51.764  0.00  0.00     0.080 A 
ATOM     11  C   UNL d   1      61.459  48.253  52.545  0.00  0.00     0.131 A 
ATOM     12  C   UNL d   1      60.965  47.621  52.736  0.00  0.00     0.024 A 
ATOM     13  C   UNL d   1      60.714  47.100  52.155  0.00  0.00     0.002 A 
ATOM     14  C   UNL d   1      60.955  47.205  51.373  0.00  0.00     0.000 A 
ATOM     15  C   UNL d   1      61.449  47.836  51.178  0.00  0.00     0.006 A 
BRANCH  11  16
ATOM     16  N   UNL d   1      61.715  48.782  53.132  0.00  0.00    -0.114 N 
ATOM     17  O   UNL d   1      61.223  49.393  53.382  0.00  0.00    -0.532 OA
ATOM     18  O   UNL d   1      62.464  48.697  53.467  0.00  0.00    -0.532 OA
ENDBRANCH  11  16
ENDBRANCH   8  10
ENDBRANCH   4   7
BRANCH   1  19
ATOM     19  C   UNL d   1      58.734  49.639  50.179  0.00  0.00     0.101 A 
ATOM     20  N   UNL d   1      58.458  49.681  49.407  0.00  0.00    -0.227 NA
ATOM     21  C   UNL d   1      57.639  49.668  49.428  0.00  0.00     0.148 A 
ATOM     22  N   UNL d   1      57.406  49.618  50.216  0.00  0.00    -0.288 N 
ATOM     23  C   UNL d   1      57.070  49.696  48.831  0.00  0.00     0.037 A 
ATOM     24  C   UNL d   1      56.607  49.596  50.408  0.00  0.00     0.082 A 
ATOM     25  C   UNL d   1      58.082  49.600  50.677  0.00  0.00     0.101 A 
ATOM     26  C   UNL d   1      56.038  49.624  49.811  0.00  0.00     0.019 A 
ATOM     27  C   UNL d   1      56.269  49.674  49.022  0.00  0.00     0.005 A 
ENDBRANCH   1  19
TORSDOF 4
ENDMDL
MODEL 2
REMARK VINA RESULT:      87.7      2.704      3.631
REMARK  4 active torsions:
REMARK  status: ('A' for Active; 'I' for Inactive)
REMARK    1  A    between atoms: N_2  and  C_9 
REMARK    2  A    between atoms: C_11  and  C_5 
REMARK    3  A    between atoms: C_6  and  C_7 
REMARK       I    between atoms: C_7  and  N_10 
REMARK    4  A    between atoms: N_10  and  C_21 
ROOT
ATOM      1  C   UNL d   1      59.623  49.664  53.319  0.00  0.00     0.019 A 
ATOM      2  C   UNL d   1      59.417  49.612  52.519  0.00  0.00     0.003 A 
ATOM      3  C   UNL d   1      60.416  49.707  53.545  0.00  0.00     0.003 A 
ATOM      4  C   UNL d   1      60.804  49.645  52.170  0.00  0.00     0.085 A 
ATOM      5  C   UNL d   1      61.002  49.697  52.968  0.00  0.00     0.019 A 
ATOM      6  C   UNL d   1      60.011  49.603  51.948  0.00  0.00     0.019 A 
ENDROOT
BRANCH   4   7
ATOM      7  N   UNL d   1      61.395  49.636  51.591  0.00  0.00    -0.208 NA
ATOM      8  C   UNL d   1      61.246  49.287  50.855  0.00  0.00     0.281 C 
ATOM      9  O   UNL d   1      61.840  49.280  50.280  0.00  0.00    -0.265 OA
BRANCH   8  10
ATOM     10  C   UNL d   1      60.509  48.949  50.700  0.00  0.00     0.080 A 
ATOM     11  C   UNL d   1      60.445  48.133  50.624  0.00  0.00     0.131 A 
ATOM     12  C   UNL d   1      59.707  47.799  50.469  0.00  0.00     0.024 A 
ATOM     13  C   UNL d   1      59.045  48.276  50.392  0.00  0.00     0.002 A 
ATOM     14  C   UNL d   1      59.112  49.094  50.468  0.00  0.00     0.000 A 
ATOM     15  C   UNL d   1      59.849  49.431  50.623  0.00  0.00     0.006 A 
BRANCH  11  16
ATOM     16  N   UNL d   1      61.118  47.652  50.704  0.00  0.00    -0.114 N 
ATOM     17  O   UNL d   1      61.197  47.153  51.354  0.00  0.00    -0.532 OA
ATOM     18  O   UNL d   1      61.710  47.673  50.130  0.00  0.00    -0.532 OA
ENDBRANCH  11  16
ENDBRANCH   8  10
ENDBRANCH   4   7
BRANCH   1  19
ATOM     19  C   UNL d   1      59.032  49.674  53.898  0.00  0.00     0.101 A 
ATOM     20  N   UNL d   1      58.222  49.678  53.769  0.00  0.00    -0.227 NA
ATOM     21  C   UNL d   1      57.847  49.688  54.497  0.00  0.00     0.148 A 
ATOM     22  N   UNL d   1      58.428  49.690  55.081  0.00  0.00    -0.288 N 
ATOM     23  C   UNL d   1      57.049  49.695  54.709  0.00  0.00     0.037 A 
ATOM     24  C   UNL d   1      58.213  49.700  55.874  0.00  0.00     0.082 A 
ATOM     25  C   UNL d   1      59.157  49.682  54.710  0.00  0.00     0.101 A 
ATOM     26  C   UNL d   1      57.415  49.707  56.086  0.00  0.00     0.019 A 
ATOM     27  C   UNL d   1      56.833  49.705  55.504  0.00  0.00     0.005 A 
ENDBRANCH   1  19
TORSDOF 4
ENDMDL
