MODEL 1
REMARK VINA RESULT:      -2.4      0.000      0.000
REMARK  2 active torsions:
REMARK  status: ('A' for Active; 'I' for Inactive)
REMARK       I    between atoms: C_3  and  N_1 
REMARK    1  A    between atoms: C_6  and  C_3 
REMARK    2  A    between atoms: O_16  and  C_11 
ROOT
ATOM      1  N   UNL d   1      32.136  17.715 -23.684  0.00  0.00    -0.175 N 
ATOM      2  N   UNL d   1      31.605  18.174 -24.114  0.00  0.00    -0.057 NA
ATOM      3  C   UNL d   1      32.748  17.998 -23.209  0.00  0.00     0.282 C 
ATOM      4  N   UNL d   1      31.088  17.676 -24.509  0.00  0.00    -0.129 NA
ATOM      5  C   UNL d   1      31.935  16.918 -23.823  0.00  0.00     0.107 A 
ATOM      6  C   UNL d   1      31.298  16.894 -24.324  0.00  0.00     0.122 A 
ATOM      7  O   UNL d   1      33.234  17.470 -22.813  0.00  0.00    -0.265 OA
ATOM      8  C   UNL d   1      32.265  16.216 -23.546  0.00  0.00     0.021 A 
ATOM      9  C   UNL d   1      30.973  16.160 -24.562  0.00  0.00     0.022 A 
ATOM     10  C   UNL d   1      31.958  15.486 -23.770  0.00  0.00     0.002 A 
ATOM     11  C   UNL d   1      31.302  15.454 -24.286  0.00  0.00     0.002 A 
ENDROOT
BRANCH   3  12
ATOM     12  C   UNL d   1      32.867  18.809 -23.135  0.00  0.00     0.059 A 
ATOM     13  C   UNL d   1      32.776  19.182 -22.411  0.00  0.00     0.013 A 
ATOM     14  C   UNL d   1      32.894  19.996 -22.330  0.00  0.00     0.057 A 
ATOM     15 BR   UNL d   1      32.801  20.364 -21.599  0.00  0.00    -0.047 Br
ATOM     16  C   UNL d   1      33.107  20.445 -22.992  0.00  0.00     0.100 A 
ATOM     17  C   UNL d   1      33.200  20.076 -23.723  0.00  0.00     0.025 A 
ATOM     18  C   UNL d   1      33.079  19.259 -23.793  0.00  0.00     0.007 A 
BRANCH  16  19
ATOM     19  O   UNL d   1      33.232  21.268 -22.935  0.00  0.00    -0.328 OA
ATOM     20  C   UNL d   1      33.074  21.762 -23.583  0.00  0.00     0.181 C 
ENDBRANCH  16  19
ENDBRANCH   3  12
TORSDOF 2
ENDMDL
MODEL 2
REMARK VINA RESULT:      -2.1      1.804      4.324
REMARK  2 active torsions:
REMARK  status: ('A' for Active; 'I' for Inactive)
REMARK       I    between atoms: C_3  and  N_1 
REMARK    1  A    between atoms: C_6  and  C_3 
REMARK    2  A    between atoms: O_16  and  C_11 
ROOT
ATOM      1  N   UNL d   1      32.787  19.985 -22.590  0.00  0.00    -0.175 N 
ATOM      2  N   UNL d   1      32.521  19.582 -21.924  0.00  0.00    -0.057 NA
ATOM      3  C   UNL d   1      32.908  19.659 -23.337  0.00  0.00     0.282 C 
ATOM      4  N   UNL d   1      32.477  20.110 -21.298  0.00  0.00    -0.129 NA
ATOM      5  C   UNL d   1      32.907  20.777 -22.363  0.00  0.00     0.107 A 
ATOM      6  C   UNL d   1      32.719  20.855 -21.577  0.00  0.00     0.122 A 
ATOM      7  O   UNL d   1      33.176  20.133 -23.951  0.00  0.00    -0.265 OA
ATOM      8  C   UNL d   1      33.167  21.434 -22.787  0.00  0.00     0.021 A 
ATOM      9  C   UNL d   1      32.787  21.595 -21.195  0.00  0.00     0.022 A 
ATOM     10  C   UNL d   1      33.240  22.171 -22.426  0.00  0.00     0.002 A 
ATOM     11  C   UNL d   1      33.048  22.256 -21.618  0.00  0.00     0.002 A 
ENDROOT
BRANCH   3  12
ATOM     12  C   UNL d   1      32.760  18.859 -23.464  0.00  0.00     0.059 A 
ATOM     13  C   UNL d   1      32.134  18.619 -23.936  0.00  0.00     0.013 A 
ATOM     14  C   UNL d   1      31.980  17.817 -24.066  0.00  0.00     0.057 A 
ATOM     15 BR   UNL d   1      31.349  17.582 -24.542  0.00  0.00    -0.047 Br
ATOM     16  C   UNL d   1      32.464  17.245 -23.715  0.00  0.00     0.100 A 
ATOM     17  C   UNL d   1      33.095  17.481 -23.240  0.00  0.00     0.025 A 
ATOM     18  C   UNL d   1      33.241  18.287 -23.115  0.00  0.00     0.007 A 
BRANCH  16  19
ATOM     19  O   UNL d   1      32.328  16.431 -23.833  0.00  0.00    -0.328 OA
ATOM     20  C   UNL d   1      32.838  15.868 -23.500  0.00  0.00     0.181 C 
ENDBRANCH  16  19
ENDBRANCH   3  12
TORSDOF 2
ENDMDL
MODEL 3
REMARK VINA RESULT:      -1.8      1.609      2.204
REMARK  2 active torsions:
REMARK  status: ('A' for Active; 'I' for Inactive)
REMARK       I    between atoms: C_3  and  N_1 
REMARK    1  A    between atoms: C_6  and  C_3 
REMARK    2  A    between atoms: O_16  and  C_11 
ROOT
ATOM      1  N   UNL d   1      32.874  19.455 -22.848  0.00  0.00    -0.175 N 
ATOM      2  N   UNL d   1      32.645  19.862 -23.526  0.00  0.00    -0.057 NA
ATOM      3  C   UNL d   1      33.014  19.789 -22.108  0.00  0.00     0.282 C 
ATOM      4  N   UNL d   1      32.565  19.324 -24.140  0.00  0.00    -0.129 NA
ATOM      5  C   UNL d   1      32.934  18.651 -23.056  0.00  0.00     0.107 A 
ATOM      6  C   UNL d   1      32.746  18.569 -23.841  0.00  0.00     0.122 A 
ATOM      7  O   UNL d   1      33.240  19.311 -21.480  0.00  0.00    -0.265 OA
ATOM      8  C   UNL d   1      33.138  17.986 -22.614  0.00  0.00     0.021 A 
ATOM      9  C   UNL d   1      32.759  17.816 -24.205  0.00  0.00     0.022 A 
ATOM     10  C   UNL d   1      33.156  17.238 -22.956  0.00  0.00     0.002 A 
ATOM     11  C   UNL d   1      32.965  17.148 -23.764  0.00  0.00     0.002 A 
ENDROOT
BRANCH   3  12
ATOM     12  C   UNL d   1      32.928  20.601 -22.002  0.00  0.00     0.059 A 
ATOM     13  C   UNL d   1      32.531  20.898 -21.349  0.00  0.00     0.013 A 
ATOM     14  C   UNL d   1      32.440  21.713 -21.237  0.00  0.00     0.057 A 
ATOM     15 BR   UNL d   1      32.040  22.004 -20.579  0.00  0.00    -0.047 Br
ATOM     16  C   UNL d   1      32.756  22.239 -21.793  0.00  0.00     0.100 A 
ATOM     17  C   UNL d   1      33.156  21.945 -22.451  0.00  0.00     0.025 A 
ATOM     18  C   UNL d   1      33.241  21.127 -22.554  0.00  0.00     0.007 A 
BRANCH  16  19
ATOM     19  O   UNL d   1      32.677  23.063 -21.701  0.00  0.00    -0.328 OA
ATOM     20  C   UNL d   1      32.963  23.580 -22.285  0.00  0.00     0.181 C 
ENDBRANCH  16  19
ENDBRANCH   3  12
TORSDOF 2
ENDMDL
MODEL 4
REMARK VINA RESULT:      -1.6      2.882      4.963
REMARK  2 active torsions:
REMARK  status: ('A' for Active; 'I' for Inactive)
REMARK       I    between atoms: C_3  and  N_1 
REMARK    1  A    between atoms: C_6  and  C_3 
REMARK    2  A    between atoms: O_16  and  C_11 
ROOT
ATOM      1  N   UNL d   1      32.754  21.656 -21.413  0.00  0.00    -0.175 N 
ATOM      2  N   UNL d   1      32.508  22.075 -22.077  0.00  0.00    -0.057 NA
ATOM      3  C   UNL d   1      33.009  20.872 -21.402  0.00  0.00     0.282 C 
ATOM      4  N   UNL d   1      32.301  22.834 -21.846  0.00  0.00    -0.129 NA
ATOM      5  C   UNL d   1      32.693  22.174 -20.763  0.00  0.00     0.107 A 
ATOM      6  C   UNL d   1      32.418  22.890 -21.025  0.00  0.00     0.122 A 
ATOM      7  O   UNL d   1      33.238  20.527 -20.693  0.00  0.00    -0.265 OA
ATOM      8  C   UNL d   1      32.859  22.068 -19.963  0.00  0.00     0.021 A 
ATOM      9  C   UNL d   1      32.302  23.523 -20.490  0.00  0.00     0.022 A 
ATOM     10  C   UNL d   1      32.751  22.679 -19.422  0.00  0.00     0.002 A 
ATOM     11  C   UNL d   1      32.468  23.419 -19.686  0.00  0.00     0.002 A 
ENDROOT
BRANCH   3  12
ATOM     12  C   UNL d   1      33.033  20.440 -22.102  0.00  0.00     0.059 A 
ATOM     13  C   UNL d   1      32.878  19.635 -22.103  0.00  0.00     0.013 A 
ATOM     14  C   UNL d   1      32.901  19.196 -22.803  0.00  0.00     0.057 A 
ATOM     15 BR   UNL d   1      32.744  18.387 -22.796  0.00  0.00    -0.047 Br
ATOM     16  C   UNL d   1      33.084  19.573 -23.516  0.00  0.00     0.100 A 
ATOM     17  C   UNL d   1      33.240  20.382 -23.521  0.00  0.00     0.025 A 
ATOM     18  C   UNL d   1      33.215  20.814 -22.814  0.00  0.00     0.007 A 
BRANCH  16  19
ATOM     19  O   UNL d   1      33.112  19.150 -24.234  0.00  0.00    -0.328 OA
ATOM     20  C   UNL d   1      33.202  19.553 -24.955  0.00  0.00     0.181 C 
ENDBRANCH  16  19
ENDBRANCH   3  12
TORSDOF 2
ENDMDL
