MODEL 1
REMARK VINA RESULT:      -7.1      0.000      0.000
REMARK  4 active torsions:
REMARK  status: ('A' for Active; 'I' for Inactive)
REMARK    1  A    between atoms: N_3  and  C_2 
REMARK       I    between atoms: C_6  and  N_3 
REMARK    2  A    between atoms: C_8  and  C_4 
REMARK    3  A    between atoms: C_9  and  C_6 
REMARK    4  A    between atoms: C_12  and  C_8 
ROOT
ATOM      1  N   UNL d   1     -48.094  12.701  23.323  0.00  0.00    -0.181 NA
ATOM      2  C   UNL d   1     -48.551  12.115  22.962  0.00  0.00     0.281 C 
ATOM      3  O   UNL d   1     -48.192  11.502  22.553  0.00  0.00    -0.265 OA
ENDROOT
BRANCH   1   4
ATOM      4  C   UNL d   1     -47.273  12.674  23.275  0.00  0.00     0.216 A 
ATOM      5  N   UNL d   1     -46.797  13.147  22.796  0.00  0.00    -0.200 NA
ATOM      6  C   UNL d   1     -46.008  12.931  22.925  0.00  0.00     0.175 A 
ATOM      7  N   UNL d   1     -46.004  12.317  23.490  0.00  0.00    -0.187 NA
ATOM      8  S   UNL d   1     -46.780  12.166  23.698  0.00  0.00     0.054 SA
BRANCH   6   9
ATOM      9  C   UNL d   1     -45.351  13.262  22.561  0.00  0.00     0.082 C 
BRANCH   9  10
ATOM     10  C   UNL d   1     -44.812  12.780  22.160  0.00  0.00     0.199 C 
ATOM     11  O   UNL d   1     -44.468  12.140  22.552  0.00  0.00    -0.286 OA
ATOM     12  C   UNL d   1     -44.618  12.938  21.370  0.00  0.00     0.045 C 
ENDBRANCH   9  10
ENDBRANCH   6   9
ENDBRANCH   1   4
BRANCH   2  13
ATOM     13  C   UNL d   1     -49.375  12.149  23.014  0.00  0.00     0.060 A 
ATOM     14  C   UNL d   1     -49.810  12.533  22.424  0.00  0.00     0.034 A 
ATOM     15  C   UNL d   1     -50.632  12.569  22.472  0.00  0.00     0.140 A 
ATOM     16  F   UNL d   1     -51.059  12.954  21.879  0.00  0.00    -0.204 F 
ATOM     17  C   UNL d   1     -51.017  12.222  23.108  0.00  0.00     0.030 A 
ATOM     18  C   UNL d   1     -50.585  11.839  23.698  0.00  0.00     0.003 A 
ATOM     19  C   UNL d   1     -49.763  11.803  23.650  0.00  0.00     0.005 A 
ENDBRANCH   2  13
TORSDOF 4
ENDMDL
MODEL 2
REMARK VINA RESULT:      -6.8      2.573      4.610
REMARK  4 active torsions:
REMARK  status: ('A' for Active; 'I' for Inactive)
REMARK    1  A    between atoms: N_3  and  C_2 
REMARK       I    between atoms: C_6  and  N_3 
REMARK    2  A    between atoms: C_8  and  C_4 
REMARK    3  A    between atoms: C_9  and  C_6 
REMARK    4  A    between atoms: C_12  and  C_8 
ROOT
ATOM      1  N   UNL d   1     -48.346  13.046  22.321  0.00  0.00    -0.181 NA
ATOM      2  C   UNL d   1     -47.717  13.455  22.667  0.00  0.00     0.281 C 
ATOM      3  O   UNL d   1     -47.813  14.231  22.913  0.00  0.00    -0.265 OA
ENDROOT
BRANCH   1   4
ATOM      4  C   UNL d   1     -49.074  13.414  22.220  0.00  0.00     0.216 A 
ATOM      5  N   UNL d   1     -49.574  13.677  22.821  0.00  0.00    -0.200 NA
ATOM      6  C   UNL d   1     -50.245  14.012  22.469  0.00  0.00     0.175 A 
ATOM      7  N   UNL d   1     -50.151  13.952  21.642  0.00  0.00    -0.187 NA
ATOM      8  S   UNL d   1     -49.435  13.587  21.499  0.00  0.00     0.054 SA
BRANCH   6   9
ATOM      9  C   UNL d   1     -50.884  14.343  22.864  0.00  0.00     0.082 C 
BRANCH   9  10
ATOM     10  C   UNL d   1     -50.941  15.164  22.946  0.00  0.00     0.199 C 
ATOM     11  O   UNL d   1     -51.064  15.632  22.278  0.00  0.00    -0.286 OA
ATOM     12  C   UNL d   1     -50.875  15.514  23.694  0.00  0.00     0.045 C 
ENDBRANCH   9  10
ENDBRANCH   6   9
ENDBRANCH   1   4
BRANCH   2  13
ATOM     13  C   UNL d   1     -46.988  13.079  22.765  0.00  0.00     0.060 A 
ATOM     14  C   UNL d   1     -46.340  13.308  22.303  0.00  0.00     0.034 A 
ATOM     15  C   UNL d   1     -45.611  12.935  22.398  0.00  0.00     0.140 A 
ATOM     16  F   UNL d   1     -44.970  13.169  21.933  0.00  0.00    -0.204 F 
ATOM     17  C   UNL d   1     -45.531  12.336  22.953  0.00  0.00     0.030 A 
ATOM     18  C   UNL d   1     -46.175  12.106  23.414  0.00  0.00     0.003 A 
ATOM     19  C   UNL d   1     -46.904  12.479  23.320  0.00  0.00     0.005 A 
ENDBRANCH   2  13
TORSDOF 4
ENDMDL
MODEL 3
REMARK VINA RESULT:      -6.8      1.970      2.145
REMARK  4 active torsions:
REMARK  status: ('A' for Active; 'I' for Inactive)
REMARK    1  A    between atoms: N_3  and  C_2 
REMARK       I    between atoms: C_6  and  N_3 
REMARK    2  A    between atoms: C_8  and  C_4 
REMARK    3  A    between atoms: C_9  and  C_6 
REMARK    4  A    between atoms: C_12  and  C_8 
ROOT
ATOM      1  N   UNL d   1     -48.014  13.994  22.872  0.00  0.00    -0.181 NA
ATOM      2  C   UNL d   1     -48.334  14.707  22.601  0.00  0.00     0.281 C 
ATOM      3  O   UNL d   1     -47.860  15.251  22.212  0.00  0.00    -0.265 OA
ENDROOT
BRANCH   1   4
ATOM      4  C   UNL d   1     -47.218  13.826  22.755  0.00  0.00     0.216 A 
ATOM      5  N   UNL d   1     -46.905  13.334  22.173  0.00  0.00    -0.200 NA
ATOM      6  C   UNL d   1     -46.081  13.325  22.260  0.00  0.00     0.175 A 
ATOM      7  N   UNL d   1     -45.891  13.820  22.904  0.00  0.00    -0.187 NA
ATOM      8  S   UNL d   1     -46.590  14.121  23.200  0.00  0.00     0.054 SA
BRANCH   6   9
ATOM      9  C   UNL d   1     -45.551  12.905  21.795  0.00  0.00     0.082 C 
BRANCH   9  10
ATOM     10  C   UNL d   1     -44.807  12.701  22.094  0.00  0.00     0.199 C 
ATOM     11  O   UNL d   1     -44.756  12.203  22.750  0.00  0.00    -0.286 OA
ATOM     12  C   UNL d   1     -44.119  12.995  21.739  0.00  0.00     0.045 C 
ENDBRANCH   9  10
ENDBRANCH   6   9
ENDBRANCH   1   4
BRANCH   2  13
ATOM     13  C   UNL d   1     -49.134  14.869  22.722  0.00  0.00     0.060 A 
ATOM     14  C   UNL d   1     -49.703  14.537  22.220  0.00  0.00     0.034 A 
ATOM     15  C   UNL d   1     -50.503  14.697  22.337  0.00  0.00     0.140 A 
ATOM     16  F   UNL d   1     -51.064  14.362  21.832  0.00  0.00    -0.204 F 
ATOM     17  C   UNL d   1     -50.733  15.186  22.954  0.00  0.00     0.030 A 
ATOM     18  C   UNL d   1     -50.168  15.518  23.456  0.00  0.00     0.003 A 
ATOM     19  C   UNL d   1     -49.368  15.359  23.339  0.00  0.00     0.005 A 
ENDBRANCH   2  13
TORSDOF 4
ENDMDL
MODEL 4
REMARK VINA RESULT:      -5.7      8.803      9.314
REMARK  4 active torsions:
REMARK  status: ('A' for Active; 'I' for Inactive)
REMARK    1  A    between atoms: N_3  and  C_2 
REMARK       I    between atoms: C_6  and  N_3 
REMARK    2  A    between atoms: C_8  and  C_4 
REMARK    3  A    between atoms: C_9  and  C_6 
REMARK    4  A    between atoms: C_12  and  C_8 
ROOT
ATOM      1  N   UNL d   1     -39.968  15.155  19.415  0.00  0.00    -0.181 NA
ATOM      2  C   UNL d   1     -40.234  14.607  18.857  0.00  0.00     0.281 C 
ATOM      3  O   UNL d   1     -40.443  13.849  19.089  0.00  0.00    -0.265 OA
ENDROOT
BRANCH   1   4
ATOM      4  C   UNL d   1     -39.912  14.945  20.208  0.00  0.00     0.216 A 
ATOM      5  N   UNL d   1     -39.221  14.742  20.611  0.00  0.00    -0.200 NA
ATOM      6  C   UNL d   1     -39.422  14.571  21.396  0.00  0.00     0.175 A 
ATOM      7  N   UNL d   1     -40.247  14.671  21.472  0.00  0.00    -0.187 NA
ATOM      8  S   UNL d   1     -40.538  14.899  20.743  0.00  0.00     0.054 SA
BRANCH   6   9
ATOM      9  C   UNL d   1     -38.902  14.345  21.989  0.00  0.00     0.082 C 
BRANCH   9  10
ATOM     10  C   UNL d   1     -38.789  13.543  22.158  0.00  0.00     0.199 C 
ATOM     11  O   UNL d   1     -39.335  13.146  22.633  0.00  0.00    -0.286 OA
ATOM     12  C   UNL d   1     -38.133  13.140  21.853  0.00  0.00     0.045 C 
ENDBRANCH   9  10
ENDBRANCH   6   9
ENDBRANCH   1   4
BRANCH   2  13
ATOM     13  C   UNL d   1     -40.288  14.824  18.063  0.00  0.00     0.060 A 
ATOM     14  C   UNL d   1     -40.975  15.190  17.781  0.00  0.00     0.034 A 
ATOM     15  C   UNL d   1     -41.034  15.409  16.989  0.00  0.00     0.140 A 
ATOM     16  F   UNL d   1     -41.723  15.772  16.716  0.00  0.00    -0.204 F 
ATOM     17  C   UNL d   1     -40.406  15.263  16.480  0.00  0.00     0.030 A 
ATOM     18  C   UNL d   1     -39.720  14.899  16.759  0.00  0.00     0.003 A 
ATOM     19  C   UNL d   1     -39.661  14.680  17.551  0.00  0.00     0.005 A 
ENDBRANCH   2  13
TORSDOF 4
ENDMDL
MODEL 5
REMARK VINA RESULT:      -5.6      8.755      9.395
REMARK  4 active torsions:
REMARK  status: ('A' for Active; 'I' for Inactive)
REMARK    1  A    between atoms: N_3  and  C_2 
REMARK       I    between atoms: C_6  and  N_3 
REMARK    2  A    between atoms: C_8  and  C_4 
REMARK    3  A    between atoms: C_9  and  C_6 
REMARK    4  A    between atoms: C_12  and  C_8 
ROOT
ATOM      1  N   UNL d   1     -39.753  14.785  19.985  0.00  0.00    -0.181 NA
ATOM      2  C   UNL d   1     -40.135  14.719  20.715  0.00  0.00     0.281 C 
ATOM      3  O   UNL d   1     -40.952  14.664  20.751  0.00  0.00    -0.265 OA
ENDROOT
BRANCH   1   4
ATOM      4  C   UNL d   1     -40.190  14.797  19.288  0.00  0.00     0.216 A 
ATOM      5  N   UNL d   1     -40.434  15.469  18.878  0.00  0.00    -0.200 NA
ATOM      6  C   UNL d   1     -40.858  15.222  18.210  0.00  0.00     0.175 A 
ATOM      7  N   UNL d   1     -40.872  14.388  18.215  0.00  0.00    -0.187 NA
ATOM      8  S   UNL d   1     -40.463  14.137  18.876  0.00  0.00     0.054 SA
BRANCH   6   9
ATOM      9  C   UNL d   1     -41.202  15.712  17.648  0.00  0.00     0.082 C 
BRANCH   9  10
ATOM     10  C   UNL d   1     -41.004  15.628  16.849  0.00  0.00     0.199 C 
ATOM     11  O   UNL d   1     -41.530  15.251  16.337  0.00  0.00    -0.286 OA
ATOM     12  C   UNL d   1     -40.283  15.920  16.565  0.00  0.00     0.045 C 
ENDBRANCH   9  10
ENDBRANCH   6   9
ENDBRANCH   1   4
BRANCH   2  13
ATOM     13  C   UNL d   1     -39.690  14.708  21.410  0.00  0.00     0.060 A 
ATOM     14  C   UNL d   1     -39.457  13.985  21.740  0.00  0.00     0.034 A 
ATOM     15  C   UNL d   1     -39.013  13.969  22.434  0.00  0.00     0.140 A 
ATOM     16  F   UNL d   1     -38.785  13.244  22.756  0.00  0.00    -0.204 F 
ATOM     17  C   UNL d   1     -38.802  14.674  22.796  0.00  0.00     0.030 A 
ATOM     18  C   UNL d   1     -39.033  15.396  22.470  0.00  0.00     0.003 A 
ATOM     19  C   UNL d   1     -39.477  15.412  21.776  0.00  0.00     0.005 A 
ENDBRANCH   2  13
TORSDOF 4
ENDMDL
