MODEL 1
REMARK VINA RESULT:      61.4      0.000      0.000
REMARK  4 active torsions:
REMARK  status: ('A' for Active; 'I' for Inactive)
REMARK    1  A    between atoms: S_10  and  C_3 
REMARK    2  A    between atoms: C_11  and  C_7 
REMARK    3  A    between atoms: C_13  and  S_10 
REMARK    4  A    between atoms: C_14  and  C_13 
ROOT
ATOM      1  N   UNL d   1     -48.145  29.646  34.975  0.00  0.00    -0.186 N 
ATOM      2  N   UNL d   1     -48.226  30.347  34.563  0.00  0.00    -0.162 NA
ATOM      3  C   UNL d   1     -48.470  28.894  34.853  0.00  0.00     0.217 A 
ATOM      4  C   UNL d   1     -47.670  29.603  35.647  0.00  0.00     0.187 A 
ATOM      5  N   UNL d   1     -48.191  28.405  35.447  0.00  0.00    -0.120 NA
ATOM      6  N   UNL d   1     -47.696  28.842  35.939  0.00  0.00    -0.127 NA
ATOM      7  C   UNL d   1     -47.824  31.021  34.825  0.00  0.00     0.102 A 
ATOM      8  C   UNL d   1     -47.267  30.282  35.908  0.00  0.00     0.042 A 
ATOM      9  C   UNL d   1     -47.345  30.984  35.499  0.00  0.00     0.024 A 
ENDROOT
BRANCH   3  10
ATOM     10  S   UNL d   1     -48.983  28.659  34.250  0.00  0.00    -0.046 SA
BRANCH  10  11
ATOM     11  C   UNL d   1     -48.961  27.898  33.963  0.00  0.00     0.038 C 
BRANCH  11  12
ATOM     12  C   UNL d   1     -49.656  27.502  33.798  0.00  0.00     0.007 A 
ATOM     13  C   UNL d   1     -49.714  26.690  33.937  0.00  0.00     0.001 A 
ATOM     14  C   UNL d   1     -50.419  26.284  33.770  0.00  0.00     0.000 A 
ATOM     15  C   UNL d   1     -51.066  26.682  33.466  0.00  0.00     0.000 A 
ATOM     16  C   UNL d   1     -51.015  27.499  33.324  0.00  0.00     0.000 A 
ATOM     17  C   UNL d   1     -51.758  26.263  33.307  0.00  0.00     0.000 C 
ATOM     18  C   UNL d   1     -50.312  27.900  33.491  0.00  0.00     0.001 A 
ENDBRANCH  11  12
ENDBRANCH  10  11
ENDBRANCH   3  10
BRANCH   7  19
ATOM     19  C   UNL d   1     -47.900  31.732  34.414  0.00  0.00     0.022 A 
ATOM     20  C   UNL d   1     -47.241  32.210  34.290  0.00  0.00     0.022 A 
ATOM     21  C   UNL d   1     -47.312  32.919  33.880  0.00  0.00     0.099 A 
ATOM     22  N   UNL d   1     -48.043  33.150  33.594  0.00  0.00    -0.242 NA
ATOM     23  C   UNL d   1     -48.723  32.664  33.718  0.00  0.00     0.099 A 
ATOM     24  C   UNL d   1     -48.629  31.960  34.130  0.00  0.00     0.022 A 
ENDBRANCH   7  19
TORSDOF 4
ENDMDL
MODEL 2
REMARK VINA RESULT:      63.3      3.340      6.925
REMARK  4 active torsions:
REMARK  status: ('A' for Active; 'I' for Inactive)
REMARK    1  A    between atoms: S_10  and  C_3 
REMARK    2  A    between atoms: C_11  and  C_7 
REMARK    3  A    between atoms: C_13  and  S_10 
REMARK    4  A    between atoms: C_14  and  C_13 
ROOT
ATOM      1  N   UNL d   1     -51.344  24.797  33.663  0.00  0.00    -0.186 N 
ATOM      2  N   UNL d   1     -52.160  24.751  33.647  0.00  0.00    -0.162 NA
ATOM      3  C   UNL d   1     -50.829  25.427  33.818  0.00  0.00     0.217 A 
ATOM      4  C   UNL d   1     -50.881  24.133  33.507  0.00  0.00     0.187 A 
ATOM      5  N   UNL d   1     -50.064  25.143  33.755  0.00  0.00    -0.120 NA
ATOM      6  N   UNL d   1     -50.095  24.342  33.563  0.00  0.00    -0.127 NA
ATOM      7  C   UNL d   1     -52.524  24.029  33.471  0.00  0.00     0.102 A 
ATOM      8  C   UNL d   1     -51.249  23.409  33.331  0.00  0.00     0.042 A 
ATOM      9  C   UNL d   1     -52.064  23.359  33.314  0.00  0.00     0.024 A 
ENDROOT
BRANCH   3  10
ATOM     10  S   UNL d   1     -51.030  26.206  34.003  0.00  0.00    -0.046 SA
BRANCH  10  11
ATOM     11  C   UNL d   1     -50.768  26.822  33.540  0.00  0.00     0.038 C 
BRANCH  11  12
ATOM     12  C   UNL d   1     -50.199  27.334  33.822  0.00  0.00     0.007 A 
ATOM     13  C   UNL d   1     -49.952  27.288  34.609  0.00  0.00     0.001 A 
ATOM     14  C   UNL d   1     -49.374  27.808  34.900  0.00  0.00     0.000 A 
ATOM     15  C   UNL d   1     -49.040  28.373  34.411  0.00  0.00     0.000 A 
ATOM     16  C   UNL d   1     -49.282  28.425  33.618  0.00  0.00     0.000 A 
ATOM     17  C   UNL d   1     -48.466  28.881  34.717  0.00  0.00     0.000 C 
ATOM     18  C   UNL d   1     -49.858  27.907  33.333  0.00  0.00     0.001 A 
ENDBRANCH  11  12
ENDBRANCH  10  11
ENDBRANCH   3  10
BRANCH   7  19
ATOM     19  C   UNL d   1     -53.347  23.977  33.453  0.00  0.00     0.022 A 
ATOM     20  C   UNL d   1     -53.716  23.249  33.560  0.00  0.00     0.022 A 
ATOM     21  C   UNL d   1     -54.536  23.191  33.543  0.00  0.00     0.099 A 
ATOM     22  N   UNL d   1     -54.987  23.862  33.419  0.00  0.00    -0.242 NA
ATOM     23  C   UNL d   1     -54.613  24.613  33.309  0.00  0.00     0.099 A 
ATOM     24  C   UNL d   1     -53.793  24.647  33.330  0.00  0.00     0.022 A 
ENDBRANCH   7  19
TORSDOF 4
ENDMDL
