MODEL 1
REMARK VINA RESULT:      50.0      0.000      0.000
REMARK  3 active torsions:
REMARK  status: ('A' for Active; 'I' for Inactive)
REMARK    1  A    between atoms: C_4  and  C_1 
REMARK    2  A    between atoms: C_12  and  N_3 
REMARK    3  A    between atoms: C_14  and  C_7 
ROOT
ATOM      1  N   UNL d   1      45.580 -16.844  42.630  0.00  0.00    -0.165 NA
ATOM      2  N   UNL d   1      45.680 -17.648  42.611  0.00  0.00    -0.230 N 
ATOM      3  C   UNL d   1      45.570 -16.583  43.383  0.00  0.00     0.108 A 
ATOM      4  C   UNL d   1      45.738 -17.909  43.418  0.00  0.00     0.084 A 
ATOM      5  C   UNL d   1      45.669 -17.246  43.898  0.00  0.00     0.040 A 
ENDROOT
BRANCH   3   6
ATOM      6  C   UNL d   1      45.476 -15.794  43.580  0.00  0.00     0.083 A 
ATOM      7  C   UNL d   1      46.018 -15.234  43.289  0.00  0.00     0.302 A 
ATOM      8  O   UNL d   1      45.924 -14.430  43.489  0.00  0.00    -0.273 OA
ATOM      9  O   UNL d   1      46.646 -15.484  42.803  0.00  0.00    -0.259 OA
ATOM     10  C   UNL d   1      45.303 -14.191  43.968  0.00  0.00     0.103 A 
ATOM     11  C   UNL d   1      44.762 -14.751  44.258  0.00  0.00     0.023 A 
ATOM     12  C   UNL d   1      45.220 -13.403  44.157  0.00  0.00     0.025 A 
ATOM     13  C   UNL d   1      44.848 -15.544  44.066  0.00  0.00     0.009 A 
ATOM     14  C   UNL d   1      44.143 -14.516  44.735  0.00  0.00     0.002 A 
ATOM     15  C   UNL d   1      44.057 -13.723  44.927  0.00  0.00     0.000 A 
ATOM     16  C   UNL d   1      44.598 -13.163  44.636  0.00  0.00     0.002 A 
ENDBRANCH   3   6
BRANCH   2  17
ATOM     17  C   UNL d   1      45.716 -18.094  41.927  0.00  0.00     0.083 A 
ATOM     18  C   UNL d   1      46.408 -18.504  41.740  0.00  0.00     0.019 A 
ATOM     19  C   UNL d   1      46.452 -18.959  41.048  0.00  0.00     0.002 A 
ATOM     20  C   UNL d   1      45.785 -18.997  40.541  0.00  0.00     0.000 A 
ATOM     21  C   UNL d   1      45.093 -18.588  40.728  0.00  0.00     0.002 A 
ATOM     22  C   UNL d   1      45.054 -18.130  41.428  0.00  0.00     0.019 A 
ENDBRANCH   2  17
BRANCH   4  23
ATOM     23  C   UNL d   1      45.841 -18.669  43.678  0.00  0.00     0.018 A 
ATOM     24  C   UNL d   1      46.535 -18.899  44.041  0.00  0.00     0.002 A 
ATOM     25  C   UNL d   1      46.638 -19.669  44.305  0.00  0.00     0.000 A 
ATOM     26  C   UNL d   1      46.039 -20.230  44.207  0.00  0.00     0.000 A 
ATOM     27  C   UNL d   1      45.333 -20.002  43.839  0.00  0.00     0.000 A 
ATOM     28  C   UNL d   1      45.235 -19.218  43.574  0.00  0.00     0.002 A 
ENDBRANCH   4  23
TORSDOF 3
ENDMDL
MODEL 2
REMARK VINA RESULT:      52.2      1.446      4.753
REMARK  3 active torsions:
REMARK  status: ('A' for Active; 'I' for Inactive)
REMARK    1  A    between atoms: C_4  and  C_1 
REMARK    2  A    between atoms: C_12  and  N_3 
REMARK    3  A    between atoms: C_14  and  C_7 
ROOT
ATOM      1  N   UNL d   1      45.998 -15.839  43.717  0.00  0.00    -0.165 NA
ATOM      2  N   UNL d   1      45.588 -15.161  43.889  0.00  0.00    -0.230 N 
ATOM      3  C   UNL d   1      45.560 -16.481  43.892  0.00  0.00     0.108 A 
ATOM      4  C   UNL d   1      44.832 -15.402  44.195  0.00  0.00     0.084 A 
ATOM      5  C   UNL d   1      44.816 -16.224  44.196  0.00  0.00     0.040 A 
ENDROOT
BRANCH   3   6
ATOM      6  C   UNL d   1      45.827 -17.247  43.778  0.00  0.00     0.083 A 
ATOM      7  C   UNL d   1      46.203 -17.446  43.064  0.00  0.00     0.302 A 
ATOM      8  O   UNL d   1      46.475 -18.225  42.946  0.00  0.00    -0.273 OA
ATOM      9  O   UNL d   1      46.301 -16.864  42.475  0.00  0.00    -0.259 OA
ATOM     10  C   UNL d   1      46.374 -18.792  43.530  0.00  0.00     0.103 A 
ATOM     11  C   UNL d   1      45.999 -18.593  44.244  0.00  0.00     0.023 A 
ATOM     12  C   UNL d   1      46.644 -19.551  43.405  0.00  0.00     0.025 A 
ATOM     13  C   UNL d   1      45.728 -17.828  44.366  0.00  0.00     0.009 A 
ATOM     14  C   UNL d   1      45.898 -19.155  44.826  0.00  0.00     0.002 A 
ATOM     15  C   UNL d   1      46.169 -19.920  44.703  0.00  0.00     0.000 A 
ATOM     16  C   UNL d   1      46.544 -20.119  43.989  0.00  0.00     0.002 A 
ENDBRANCH   3   6
BRANCH   2  17
ATOM     17  C   UNL d   1      45.875 -14.404  43.777  0.00  0.00     0.083 A 
ATOM     18  C   UNL d   1      46.328 -14.046  44.367  0.00  0.00     0.019 A 
ATOM     19  C   UNL d   1      46.623 -13.278  44.262  0.00  0.00     0.002 A 
ATOM     20  C   UNL d   1      46.456 -12.871  43.548  0.00  0.00     0.000 A 
ATOM     21  C   UNL d   1      46.003 -13.229  42.958  0.00  0.00     0.002 A 
ATOM     22  C   UNL d   1      45.707 -14.005  43.069  0.00  0.00     0.019 A 
ENDBRANCH   2  17
BRANCH   4  23
ATOM     23  C   UNL d   1      44.231 -14.919  44.443  0.00  0.00     0.018 A 
ATOM     24  C   UNL d   1      44.316 -14.108  44.448  0.00  0.00     0.002 A 
ATOM     25  C   UNL d   1      43.706 -13.620  44.699  0.00  0.00     0.000 A 
ATOM     26  C   UNL d   1      42.990 -13.943  44.955  0.00  0.00     0.000 A 
ATOM     27  C   UNL d   1      42.897 -14.766  44.952  0.00  0.00     0.000 A 
ATOM     28  C   UNL d   1      43.521 -15.255  44.695  0.00  0.00     0.002 A 
ENDBRANCH   4  23
TORSDOF 3
ENDMDL
