MODEL 1
REMARK VINA RESULT:      12.7      0.000      0.000
REMARK  2 active torsions:
REMARK  status: ('A' for Active; 'I' for Inactive)
REMARK    1  A    between atoms: C_3  and  C_1 
REMARK       I    between atoms: C_2  and  N_4 
REMARK    2  A    between atoms: N_4  and  C_7 
ROOT
ATOM      1  C   UNL d   1      60.528  49.696  51.449  0.00  0.00     0.073 A 
ATOM      2  C   UNL d   1      59.708  49.699  51.559  0.00  0.00     0.024 A 
ATOM      3  C   UNL d   1      59.206  49.704  50.904  0.00  0.00     0.100 A 
ATOM      4  C   UNL d   1      60.843  49.697  50.688  0.00  0.00     0.004 A 
ATOM      5  C   UNL d   1      60.340  49.702  50.034  0.00  0.00     0.002 A 
ATOM      6  C   UNL d   1      59.523  49.706  50.140  0.00  0.00     0.020 A 
ENDROOT
BRANCH   1   7
ATOM      7  C   UNL d   1      61.035  49.691  52.110  0.00  0.00     0.419 C 
ATOM      8  F   UNL d   1      61.491  49.686  52.705  0.00  0.00    -0.166 F 
ATOM      9  F   UNL d   1      60.832  49.701  52.948  0.00  0.00    -0.166 F 
ATOM     10  F   UNL d   1      61.894  49.674  52.134  0.00  0.00    -0.166 F 
ENDBRANCH   1   7
BRANCH   3  11
ATOM     11  N   UNL d   1      58.387  49.707  51.007  0.00  0.00    -0.056 NA
ATOM     12  C   UNL d   1      57.891  49.703  50.354  0.00  0.00     0.787 C 
ATOM     13  N   UNL d   1      57.074  49.706  50.452  0.00  0.00     0.064 N 
ATOM     14  N   UNL d   1      58.216  49.696  49.596  0.00  0.00     0.064 N 
ENDBRANCH   3  11
TORSDOF 2
ENDMDL
MODEL 2
REMARK VINA RESULT:      12.7      2.684      3.508
REMARK  2 active torsions:
REMARK  status: ('A' for Active; 'I' for Inactive)
REMARK    1  A    between atoms: C_3  and  C_1 
REMARK       I    between atoms: C_2  and  N_4 
REMARK    2  A    between atoms: N_4  and  C_7 
ROOT
ATOM      1  C   UNL d   1      57.686  49.618  50.184  0.00  0.00     0.073 A 
ATOM      2  C   UNL d   1      58.193  49.618  50.837  0.00  0.00     0.024 A 
ATOM      3  C   UNL d   1      59.009  49.662  50.724  0.00  0.00     0.100 A 
ATOM      4  C   UNL d   1      57.995  49.663  49.422  0.00  0.00     0.004 A 
ATOM      5  C   UNL d   1      58.811  49.707  49.308  0.00  0.00     0.002 A 
ATOM      6  C   UNL d   1      59.318  49.706  49.957  0.00  0.00     0.020 A 
ENDROOT
BRANCH   1   7
ATOM      7  C   UNL d   1      56.862  49.574  50.298  0.00  0.00     0.419 C 
ATOM      8  F   UNL d   1      56.120  49.534  50.401  0.00  0.00    -0.166 F 
ATOM      9  F   UNL d   1      56.407  49.704  51.019  0.00  0.00    -0.166 F 
ATOM     10  F   UNL d   1      56.245  49.387  49.729  0.00  0.00    -0.166 F 
ENDBRANCH   1   7
BRANCH   3  11
ATOM     11  N   UNL d   1      59.521  49.661  51.371  0.00  0.00    -0.056 NA
ATOM     12  C   UNL d   1      60.332  49.662  51.255  0.00  0.00     0.787 C 
ATOM     13  N   UNL d   1      60.845  49.661  51.897  0.00  0.00     0.064 N 
ATOM     14  N   UNL d   1      60.632  49.663  50.486  0.00  0.00     0.064 N 
ENDBRANCH   3  11
TORSDOF 2
ENDMDL
