MODEL 1
REMARK VINA RESULT:       4.6      0.000      0.000
REMARK  5 active torsions:
REMARK  status: ('A' for Active; 'I' for Inactive)
REMARK    1  A    between atoms: O_8  and  C_7 
REMARK    2  A    between atoms: C_10  and  O_8 
REMARK    3  A    between atoms: C_9  and  C_10 
REMARK    4  A    between atoms: O_17  and  C_9 
REMARK    5  A    between atoms: C_21  and  O_17 
ROOT
ATOM      1  C   UNL d   1     -42.418-123.070 -49.236  0.00  0.00     0.009 A 
ATOM      2  C   UNL d   1     -42.888-122.700 -49.796  0.00  0.00     0.046 A 
ATOM      3  C   UNL d   1     -42.757-123.355 -48.537  0.00  0.00     0.064 A 
ATOM      4  C   UNL d   1     -43.559-123.267 -48.408  0.00  0.00     0.300 A 
ATOM      5  C   UNL d   1     -43.690-122.612 -49.667  0.00  0.00     0.105 A 
ATOM      6  O   UNL d   1     -44.029-122.893 -48.976  0.00  0.00    -0.273 OA
ATOM      7  C   UNL d   1     -42.541-122.417 -50.491  0.00  0.00     0.102 A 
ATOM      8  C   UNL d   1     -44.161-122.234 -50.242  0.00  0.00     0.025 A 
ATOM      9  C   UNL d   1     -43.019-122.042 -51.058  0.00  0.00     0.025 A 
ATOM     10  O   UNL d   1     -43.905-123.556 -47.701  0.00  0.00    -0.259 OA
ATOM     11  C   UNL d   1     -43.821-121.954 -50.929  0.00  0.00     0.004 A 
ATOM     12  C   UNL d   1     -41.609-123.158 -49.366  0.00  0.00     0.000 A 
ATOM     13  C   UNL d   1     -42.287-123.727 -47.973  0.00  0.00     0.005 A 
ATOM     14  C   UNL d   1     -44.292-121.579 -51.500  0.00  0.00     0.000 C 
ATOM     15  C   UNL d   1     -41.126-123.532 -48.804  0.00  0.00     0.000 A 
ATOM     16  C   UNL d   1     -41.477-123.816 -48.104  0.00  0.00     0.000 A 
ENDROOT
BRANCH   7  17
ATOM     17  O   UNL d   1     -41.739-122.505 -50.620  0.00  0.00    -0.302 OA
BRANCH  17  18
ATOM     18  C   UNL d   1     -41.404-122.240 -51.329  0.00  0.00     0.163 C 
ATOM     19  C   UNL d   1     -41.247-121.428 -51.432  0.00  0.00     0.032 C 
BRANCH  18  20
ATOM     20  C   UNL d   1     -41.227-122.778 -51.927  0.00  0.00     0.323 C 
ATOM     21  O   UNL d   1     -41.124-123.569 -51.750  0.00  0.00    -0.257 OA
BRANCH  20  22
ATOM     22  O   UNL d   1     -41.156-122.504 -52.703  0.00  0.00    -0.270 OA
BRANCH  22  23
ATOM     23  C   UNL d   1     -41.307-123.024 -53.337  0.00  0.00     0.126 C 
ATOM     24  C   UNL d   1     -41.124-122.802 -54.096  0.00  0.00     0.029 C 
ENDBRANCH  22  23
ENDBRANCH  20  22
ENDBRANCH  18  20
ENDBRANCH  17  18
ENDBRANCH   7  17
TORSDOF 5
ENDMDL
