MODEL 1
REMARK VINA RESULT:      46.1      0.000      0.000
REMARK  4 active torsions:
REMARK  status: ('A' for Active; 'I' for Inactive)
REMARK    1  A    between atoms: N_6  and  S_1 
REMARK    2  A    between atoms: C_10  and  S_1 
REMARK    3  A    between atoms: S_2  and  C_11 
REMARK    4  A    between atoms: N_7  and  S_2 
REMARK       I    between atoms: C_14  and  N_6 
REMARK       I    between atoms: C_15  and  N_7 
ROOT
ATOM      1  C   UNL d   1      45.571 -17.121  42.918  0.00  0.00     0.040 A 
ATOM      2  C   UNL d   1      45.286 -15.967  43.514  0.00  0.00     0.040 A 
ATOM      3  C   UNL d   1      45.148 -16.426  42.839  0.00  0.00     0.196 A 
ATOM      4  C   UNL d   1      45.796 -16.390  43.999  0.00  0.00     0.003 A 
ATOM      5  C   UNL d   1      45.974 -17.100  43.638  0.00  0.00     0.003 A 
ATOM      6  C   UNL d   1      46.123 -18.417  42.651  0.00  0.00     0.105 A 
ATOM      7  C   UNL d   1      45.253 -14.911  44.455  0.00  0.00     0.105 A 
ATOM      8  C   UNL d   1      45.649 -17.791  42.419  0.00  0.00     0.016 A 
ATOM      9  C   UNL d   1      45.010 -15.221  43.739  0.00  0.00     0.016 A 
ATOM     10  C   UNL d   1      46.036 -16.070  44.720  0.00  0.00     0.001 A 
ATOM     11  C   UNL d   1      46.452 -17.737  43.868  0.00  0.00     0.001 A 
ATOM     12  O   UNL d   1      44.665 -16.209  42.203  0.00  0.00    -0.287 OA
ATOM     13  C   UNL d   1      45.764 -15.326  44.952  0.00  0.00     0.013 A 
ATOM     14  C   UNL d   1      46.527 -18.399  43.372  0.00  0.00     0.013 A 
ENDROOT
BRANCH   6  15
ATOM     15  S   UNL d   1      46.202 -19.078  42.163  0.00  0.00     0.288 S 
ATOM     16  O   UNL d   1      46.641 -19.451  42.756  0.00  0.00    -0.198 OA
ATOM     17  O   UNL d   1      45.763 -18.713  41.562  0.00  0.00    -0.198 OA
BRANCH  15  18
ATOM     18  N   UNL d   1      46.292 -19.760  41.679  0.00  0.00    -0.118 NA
ATOM     19  C   UNL d   1      46.507 -19.672  40.886  0.00  0.00     0.289 C 
ATOM     20  O   UNL d   1      46.634 -18.911  40.570  0.00  0.00    -0.265 OA
ATOM     21  C   UNL d   1      46.596 -20.327  40.412  0.00  0.00     0.068 C 
ENDBRANCH  15  18
ENDBRANCH   6  15
BRANCH   7  22
ATOM     22  S   UNL d   1      44.977 -14.165  44.681  0.00  0.00     0.288 S 
ATOM     23  O   UNL d   1      45.747 -13.952  44.890  0.00  0.00    -0.198 OA
ATOM     24  O   UNL d   1      44.206 -14.377  44.472  0.00  0.00    -0.198 OA
BRANCH  22  25
ATOM     25  N   UNL d   1      44.638 -13.437  44.889  0.00  0.00    -0.118 NA
ATOM     26  C   UNL d   1      44.639 -12.816  44.351  0.00  0.00     0.289 C 
ATOM     27  O   UNL d   1      44.299 -12.090  44.562  0.00  0.00    -0.265 OA
ATOM     28  C   UNL d   1      44.973 -12.910  43.607  0.00  0.00     0.068 C 
ENDBRANCH  22  25
ENDBRANCH   7  22
TORSDOF 4
ENDMDL
