MODEL 1
REMARK VINA RESULT:      32.9      0.000      0.000
REMARK  6 active torsions:
REMARK  status: ('A' for Active; 'I' for Inactive)
REMARK    1  A    between atoms: C_9  and  N_2 
REMARK       I    between atoms: N_5  and  C_6 
REMARK    2  A    between atoms: C_6  and  C_10 
REMARK    3  A    between atoms: C_11  and  N_7 
REMARK    4  A    between atoms: C_10  and  C_9 
REMARK    5  A    between atoms: C_18  and  C_11 
REMARK    6  A    between atoms: C_19  and  C_11 
ROOT
ATOM      1  N   UNL d   1      45.924 -15.955  43.984  0.00  0.00    -0.269 N 
ATOM      2  C   UNL d   1      45.778 -15.199  44.272  0.00  0.00     0.266 C 
ATOM      3  N   UNL d   1      46.221 -17.479  43.399  0.00  0.00    -0.301 N 
ATOM      4  C   UNL d   1      46.393 -16.055  43.305  0.00  0.00     0.102 A 
ATOM      5  C   UNL d   1      45.610 -16.610  44.363  0.00  0.00     0.102 A 
ATOM      6  C   UNL d   1      45.759 -17.373  44.071  0.00  0.00     0.100 A 
ATOM      7  C   UNL d   1      46.541 -16.807  43.014  0.00  0.00     0.100 A 
ATOM      8  O   UNL d   1      45.312 -15.101  44.947  0.00  0.00    -0.267 OA
ENDROOT
BRANCH   2   9
ATOM      9  C   UNL d   1      46.093 -14.539  43.892  0.00  0.00     0.080 C 
BRANCH   9  10
ATOM     10  C   UNL d   1      45.971 -13.785  44.196  0.00  0.00     0.090 C 
BRANCH  10  11
ATOM     11  N   UNL d   1      45.529 -13.233  43.774  0.00  0.00    -0.251 N 
ATOM     12  C   UNL d   1      44.915 -12.773  44.071  0.00  0.00     0.378 A 
ATOM     13  O   UNL d   1      44.681 -12.331  43.419  0.00  0.00    -0.258 OA
ATOM     14  O   UNL d   1      44.634 -12.785  44.847  0.00  0.00    -0.237 OA
ATOM     15  C   UNL d   1      45.073 -12.468  42.782  0.00  0.00     0.121 A 
ATOM     16  C   UNL d   1      45.039 -12.167  42.010  0.00  0.00     0.026 A 
ATOM     17  C   UNL d   1      45.629 -13.046  42.976  0.00  0.00     0.092 A 
ATOM     18  C   UNL d   1      45.564 -12.448  41.432  0.00  0.00     0.002 A 
ATOM     19  C   UNL d   1      46.117 -13.026  41.637  0.00  0.00     0.002 A 
ATOM     20  C   UNL d   1      46.147 -13.323  42.408  0.00  0.00     0.020 A 
ENDBRANCH  10  11
ENDBRANCH   9  10
ENDBRANCH   2   9
BRANCH   3  21
ATOM     21  C   UNL d   1      46.377 -18.238  43.097  0.00  0.00     0.064 C 
BRANCH  21  22
ATOM     22  C   UNL d   1      46.467 -18.361  42.289  0.00  0.00     0.016 A 
ATOM     23  C   UNL d   1      46.498 -19.130  41.992  0.00  0.00     0.001 A 
ATOM     24  C   UNL d   1      46.588 -19.252  41.184  0.00  0.00     0.000 A 
ATOM     25  C   UNL d   1      46.647 -18.606  40.672  0.00  0.00     0.000 A 
ATOM     26  C   UNL d   1      46.615 -17.841  40.971  0.00  0.00     0.000 A 
ATOM     27  C   UNL d   1      46.526 -17.719  41.780  0.00  0.00     0.001 A 
ENDBRANCH  21  22
BRANCH  21  28
ATOM     28  C   UNL d   1      46.442 -18.874  43.627  0.00  0.00     0.016 A 
ATOM     29  C   UNL d   1      46.540 -19.641  43.321  0.00  0.00     0.001 A 
ATOM     30  C   UNL d   1      46.605 -20.277  43.851  0.00  0.00     0.000 A 
ATOM     31  C   UNL d   1      46.571 -20.146  44.662  0.00  0.00     0.000 A 
ATOM     32  C   UNL d   1      46.473 -19.379  44.952  0.00  0.00     0.000 A 
ATOM     33  C   UNL d   1      46.408 -18.741  44.434  0.00  0.00     0.001 A 
ENDBRANCH  21  28
ENDBRANCH   3  21
TORSDOF 6
ENDMDL
MODEL 2
REMARK VINA RESULT:      33.5      0.913      2.148
REMARK  6 active torsions:
REMARK  status: ('A' for Active; 'I' for Inactive)
REMARK    1  A    between atoms: C_9  and  N_2 
REMARK       I    between atoms: N_5  and  C_6 
REMARK    2  A    between atoms: C_6  and  C_10 
REMARK    3  A    between atoms: C_11  and  N_7 
REMARK    4  A    between atoms: C_10  and  C_9 
REMARK    5  A    between atoms: C_18  and  C_11 
REMARK    6  A    between atoms: C_19  and  C_11 
ROOT
ATOM      1  N   UNL d   1      45.198 -16.061  44.338  0.00  0.00    -0.269 N 
ATOM      2  C   UNL d   1      44.923 -15.363  44.674  0.00  0.00     0.266 C 
ATOM      3  N   UNL d   1      45.759 -17.467  43.658  0.00  0.00    -0.301 N 
ATOM      4  C   UNL d   1      46.013 -16.162  44.206  0.00  0.00     0.102 A 
ATOM      5  C   UNL d   1      44.675 -16.656  44.131  0.00  0.00     0.102 A 
ATOM      6  C   UNL d   1      44.954 -17.360  43.791  0.00  0.00     0.100 A 
ATOM      7  C   UNL d   1      46.292 -16.857  43.870  0.00  0.00     0.100 A 
ATOM      8  O   UNL d   1      44.113 -15.264  44.804  0.00  0.00    -0.267 OA
ENDROOT
BRANCH   2   9
ATOM      9  C   UNL d   1      45.448 -14.763  44.883  0.00  0.00     0.080 C 
BRANCH   9  10
ATOM     10  C   UNL d   1      45.855 -14.345  44.304  0.00  0.00     0.090 C 
BRANCH  10  11
ATOM     11  N   UNL d   1      45.646 -13.568  44.129  0.00  0.00    -0.251 N 
ATOM     12  C   UNL d   1      46.005 -12.890  44.426  0.00  0.00     0.378 A 
ATOM     13  O   UNL d   1      45.580 -12.282  44.071  0.00  0.00    -0.258 OA
ATOM     14  O   UNL d   1      46.639 -12.871  44.954  0.00  0.00    -0.237 OA
ATOM     15  C   UNL d   1      45.022 -12.511  43.608  0.00  0.00     0.121 A 
ATOM     16  C   UNL d   1      44.463 -12.114  43.142  0.00  0.00     0.026 A 
ATOM     17  C   UNL d   1      45.037 -13.336  43.622  0.00  0.00     0.092 A 
ATOM     18  C   UNL d   1      43.918 -12.545  42.690  0.00  0.00     0.002 A 
ATOM     19  C   UNL d   1      43.942 -13.371  42.711  0.00  0.00     0.002 A 
ATOM     20  C   UNL d   1      44.501 -13.763  43.177  0.00  0.00     0.020 A 
ENDBRANCH  10  11
ENDBRANCH   9  10
ENDBRANCH   2   9
BRANCH   3  21
ATOM     21  C   UNL d   1      46.052 -18.167  43.318  0.00  0.00     0.064 C 
BRANCH  21  22
ATOM     22  C   UNL d   1      46.158 -18.846  43.771  0.00  0.00     0.016 A 
ATOM     23  C   UNL d   1      45.879 -19.570  43.494  0.00  0.00     0.001 A 
ATOM     24  C   UNL d   1      45.985 -20.249  43.947  0.00  0.00     0.000 A 
ATOM     25  C   UNL d   1      46.369 -20.202  44.677  0.00  0.00     0.000 A 
ATOM     26  C   UNL d   1      46.646 -19.477  44.950  0.00  0.00     0.000 A 
ATOM     27  C   UNL d   1      46.540 -18.799  44.497  0.00  0.00     0.001 A 
ENDBRANCH  21  22
BRANCH  21  28
ATOM     28  C   UNL d   1      46.238 -18.171  42.509  0.00  0.00     0.016 A 
ATOM     29  C   UNL d   1      46.455 -17.455  42.145  0.00  0.00     0.001 A 
ATOM     30  C   UNL d   1      46.641 -17.459  41.336  0.00  0.00     0.000 A 
ATOM     31  C   UNL d   1      46.610 -18.159  40.906  0.00  0.00     0.000 A 
ATOM     32  C   UNL d   1      46.392 -18.862  41.280  0.00  0.00     0.000 A 
ATOM     33  C   UNL d   1      46.206 -18.870  42.083  0.00  0.00     0.001 A 
ENDBRANCH  21  28
ENDBRANCH   3  21
TORSDOF 6
ENDMDL
MODEL 3
REMARK VINA RESULT:      35.0      4.098      6.725
REMARK  6 active torsions:
REMARK  status: ('A' for Active; 'I' for Inactive)
REMARK    1  A    between atoms: C_9  and  N_2 
REMARK       I    between atoms: N_5  and  C_6 
REMARK    2  A    between atoms: C_6  and  C_10 
REMARK    3  A    between atoms: C_11  and  N_7 
REMARK    4  A    between atoms: C_10  and  C_9 
REMARK    5  A    between atoms: C_18  and  C_11 
REMARK    6  A    between atoms: C_19  and  C_11 
ROOT
ATOM      1  N   UNL d   1      45.162 -17.357  39.524  0.00  0.00    -0.269 N 
ATOM      2  C   UNL d   1      45.300 -17.848  40.168  0.00  0.00     0.266 C 
ATOM      3  N   UNL d   1      44.887 -16.367  38.220  0.00  0.00    -0.301 N 
ATOM      4  C   UNL d   1      45.722 -17.313  38.910  0.00  0.00     0.102 A 
ATOM      5  C   UNL d   1      44.476 -16.910  39.482  0.00  0.00     0.102 A 
ATOM      6  C   UNL d   1      44.338 -16.416  38.830  0.00  0.00     0.100 A 
ATOM      7  C   UNL d   1      45.588 -16.825  38.265  0.00  0.00     0.100 A 
ATOM      8  O   UNL d   1      44.743 -17.890  40.776  0.00  0.00    -0.267 OA
ENDROOT
BRANCH   2   9
ATOM      9  C   UNL d   1      45.989 -18.297  40.212  0.00  0.00     0.080 C 
BRANCH   9  10
ATOM     10  C   UNL d   1      46.448 -18.293  40.894  0.00  0.00     0.090 C 
BRANCH  10  11
ATOM     11  N   UNL d   1      46.520 -18.975  41.350  0.00  0.00    -0.251 N 
ATOM     12  C   UNL d   1      46.590 -19.744  41.066  0.00  0.00     0.378 A 
ATOM     13  O   UNL d   1      46.643 -20.193  41.753  0.00  0.00    -0.258 OA
ATOM     14  O   UNL d   1      46.601 -19.966  40.272  0.00  0.00    -0.237 OA
ATOM     15  C   UNL d   1      46.614 -19.793  42.399  0.00  0.00     0.121 A 
ATOM     16  C   UNL d   1      46.645 -19.996  43.202  0.00  0.00     0.026 A 
ATOM     17  C   UNL d   1      46.534 -19.003  42.175  0.00  0.00     0.092 A 
ATOM     18  C   UNL d   1      46.596 -19.404  43.782  0.00  0.00     0.002 A 
ATOM     19  C   UNL d   1      46.516 -18.616  43.547  0.00  0.00     0.002 A 
ATOM     20  C   UNL d   1      46.486 -18.418  42.745  0.00  0.00     0.020 A 
ENDBRANCH  10  11
ENDBRANCH   9  10
ENDBRANCH   2   9
BRANCH   3  21
ATOM     21  C   UNL d   1      44.761 -15.875  37.561  0.00  0.00     0.064 C 
BRANCH  21  22
ATOM     22  C   UNL d   1      45.355 -15.378  37.284  0.00  0.00     0.016 A 
ATOM     23  C   UNL d   1      45.840 -15.626  36.666  0.00  0.00     0.001 A 
ATOM     24  C   UNL d   1      46.435 -15.129  36.389  0.00  0.00     0.000 A 
ATOM     25  C   UNL d   1      46.543 -14.385  36.730  0.00  0.00     0.000 A 
ATOM     26  C   UNL d   1      46.057 -14.141  37.347  0.00  0.00     0.000 A 
ATOM     27  C   UNL d   1      45.463 -14.638  37.624  0.00  0.00     0.001 A 
ENDBRANCH  21  22
BRANCH  21  28
ATOM     28  C   UNL d   1      44.021 -15.893  37.186  0.00  0.00     0.016 A 
ATOM     29  C   UNL d   1      43.831 -16.546  36.708  0.00  0.00     0.001 A 
ATOM     30  C   UNL d   1      43.090 -16.564  36.332  0.00  0.00     0.000 A 
ATOM     31  C   UNL d   1      42.559 -15.946  36.433  0.00  0.00     0.000 A 
ATOM     32  C   UNL d   1      42.760 -15.303  36.911  0.00  0.00     0.000 A 
ATOM     33  C   UNL d   1      43.493 -15.275  37.288  0.00  0.00     0.001 A 
ENDBRANCH  21  28
ENDBRANCH   3  21
TORSDOF 6
ENDMDL
