MODEL 1
REMARK VINA RESULT:      -4.2      0.000      0.000
REMARK  5 active torsions:
REMARK  status: ('A' for Active; 'I' for Inactive)
REMARK    1  A    between atoms: N_6  and  S_1 
REMARK    2  A    between atoms: C_8  and  S_1 
REMARK    3  A    between atoms: C_12  and  C_3 
REMARK    4  A    between atoms: C_4  and  C_11 
REMARK    5  A    between atoms: C_15  and  N_6 
ROOT
ATOM      1  C   UNL d   1      33.089  19.836 -22.510  0.00  0.00     0.018 A 
ATOM      2  C   UNL d   1      33.160  18.351 -23.218  0.00  0.00     0.094 A 
ATOM      3  C   UNL d   1      33.205  19.159 -22.048  0.00  0.00     0.003 A 
ATOM      4  C   UNL d   1      33.009  19.765 -23.328  0.00  0.00     0.003 A 
ATOM      5  C   UNL d   1      33.240  18.417 -22.403  0.00  0.00     0.020 A 
ATOM      6  C   UNL d   1      33.044  19.028 -23.680  0.00  0.00     0.020 A 
ENDROOT
BRANCH   1   7
ATOM      7  C   UNL d   1      33.054  20.578 -22.155  0.00  0.00     0.088 A 
ATOM      8  N   UNL d   1      32.651  21.060 -20.893  0.00  0.00    -0.239 NA
ATOM      9  C   UNL d   1      32.835  21.824 -21.125  0.00  0.00     0.111 A 
ATOM     10  S   UNL d   1      33.128  21.965 -21.870  0.00  0.00    -0.066 SA
ATOM     11  C   UNL d   1      33.241  21.339 -22.394  0.00  0.00     0.056 A 
BRANCH   9  12
ATOM     12  C   UNL d   1      32.723  22.449 -20.604  0.00  0.00     0.024 A 
ATOM     13  C   UNL d   1      33.112  22.446 -19.879  0.00  0.00     0.002 A 
ATOM     14  C   UNL d   1      32.996  23.075 -19.362  0.00  0.00     0.000 A 
ATOM     15  C   UNL d   1      32.502  23.700 -19.561  0.00  0.00     0.000 A 
ATOM     16  C   UNL d   1      32.115  23.696 -20.293  0.00  0.00     0.000 A 
ATOM     17  C   UNL d   1      32.228  23.064 -20.819  0.00  0.00     0.002 A 
ENDBRANCH   9  12
ENDBRANCH   1   7
BRANCH   2  18
ATOM     18  N   UNL d   1      33.194  17.606 -23.581  0.00  0.00    -0.158 NA
BRANCH  18  19
ATOM     19  S   UNL d   1      32.506  17.188 -23.722  0.00  0.00     0.285 S 
ATOM     20  O   UNL d   1      31.984  17.442 -24.311  0.00  0.00    -0.198 OA
ATOM     21  O   UNL d   1      32.328  16.511 -23.279  0.00  0.00    -0.198 OA
BRANCH  19  22
ATOM     22  C   UNL d   1      31.810  16.766 -23.866  0.00  0.00     0.105 A 
ATOM     23  C   UNL d   1      31.528  16.224 -23.308  0.00  0.00     0.013 A 
ATOM     24  C   UNL d   1      30.837  15.800 -23.443  0.00  0.00     0.001 A 
ATOM     25  C   UNL d   1      30.419  15.923 -24.154  0.00  0.00     0.000 A 
ATOM     26  C   UNL d   1      30.695  16.463 -24.716  0.00  0.00     0.001 A 
ATOM     27  C   UNL d   1      29.716  15.498 -24.302  0.00  0.00     0.000 C 
ATOM     28  C   UNL d   1      31.394  16.886 -24.570  0.00  0.00     0.013 A 
ENDBRANCH  19  22
ENDBRANCH  18  19
ENDBRANCH   2  18
TORSDOF 5
ENDMDL
