MODEL 1
REMARK VINA RESULT:     105.1      0.000      0.000
REMARK  7 active torsions:
REMARK  status: ('A' for Active; 'I' for Inactive)
REMARK    1  A    between atoms: C_7  and  C_1 
REMARK    2  A    between atoms: C_11  and  N_2 
REMARK    3  A    between atoms: C_10  and  C_5 
REMARK    4  A    between atoms: C_6  and  C_7 
REMARK    5  A    between atoms: C_18  and  C_11 
REMARK    6  A    between atoms: O_20  and  C_15 
REMARK    7  A    between atoms: N_19  and  C_18 
ROOT
ATOM      1  C   UNL d   1     -55.947 -99.875 -43.882  0.00  0.00     0.101 A 
ATOM      2  N   UNL d   1     -55.463-100.902 -43.179  0.00  0.00    -0.269 N 
ATOM      3  C   UNL d   1     -55.533 -99.570 -43.233  0.00  0.00     0.256 A 
ATOM      4  C   UNL d   1     -55.235-100.202 -42.800  0.00  0.00     0.304 A 
ATOM      5  C   UNL d   1     -55.899-100.697 -43.842  0.00  0.00     0.075 A 
ATOM      6  O   UNL d   1     -54.785-100.144 -42.105  0.00  0.00    -0.263 OA
ATOM      7  O   UNL d   1     -55.435 -98.766 -43.049  0.00  0.00    -0.281 OA
ENDROOT
BRANCH   1   8
ATOM      8  C   UNL d   1     -56.334 -99.431 -44.459  0.00  0.00     0.223 C 
ATOM      9  O   UNL d   1     -55.911 -99.138 -45.107  0.00  0.00    -0.284 OA
BRANCH   8  10
ATOM     10  C   UNL d   1     -57.141 -99.276 -44.398  0.00  0.00     0.139 A 
ATOM     11  O   UNL d   1     -57.670 -99.185 -45.029  0.00  0.00    -0.304 OA
ATOM     12  C   UNL d   1     -58.414 -99.037 -44.710  0.00  0.00     0.100 A 
ATOM     13  C   UNL d   1     -59.145 -98.902 -45.070  0.00  0.00     0.025 A 
ATOM     14  C   UNL d   1     -58.352 -99.035 -43.895  0.00  0.00     0.025 A 
ATOM     15  C   UNL d   1     -59.808 -98.768 -44.608  0.00  0.00     0.002 A 
ATOM     16  C   UNL d   1     -59.739 -98.767 -43.787  0.00  0.00     0.000 A 
ATOM     17  C   UNL d   1     -59.017 -98.900 -43.429  0.00  0.00     0.002 A 
ATOM     18  C   UNL d   1     -57.561 -99.184 -43.704  0.00  0.00     0.030 A 
ENDBRANCH   8  10
ENDBRANCH   1   8
BRANCH   5  19
ATOM     19  C   UNL d   1     -56.243-101.224 -44.392  0.00  0.00     0.039 A 
ATOM     20  C   UNL d   1     -55.801-101.483 -45.043  0.00  0.00     0.096 A 
ATOM     21  C   UNL d   1     -56.136-102.002 -45.587  0.00  0.00     0.024 A 
ATOM     22  C   UNL d   1     -56.925-102.271 -45.485  0.00  0.00     0.002 A 
ATOM     23  C   UNL d   1     -57.363-102.006 -44.828  0.00  0.00     0.000 A 
ATOM     24  C   UNL d   1     -57.019-101.484 -44.286  0.00  0.00     0.003 A 
BRANCH  20  25
ATOM     25  O   UNL d   1     -55.026-101.218 -45.142  0.00  0.00    -0.328 OA
ATOM     26  C   UNL d   1     -54.714-100.661 -44.615  0.00  0.00     0.181 C 
ENDBRANCH  20  25
ENDBRANCH   5  19
BRANCH   2  27
ATOM     27  C   UNL d   1     -55.278-101.670 -42.926  0.00  0.00     0.102 C 
BRANCH  27  28
ATOM     28  C   UNL d   1     -54.820-101.787 -42.252  0.00  0.00     0.100 C 
BRANCH  28  29
ATOM     29  N   UNL d   1     -55.154-102.143 -41.579  0.00  0.00    -0.299 N 
ATOM     30  C   UNL d   1     -55.907-101.913 -41.328  0.00  0.00     0.100 C 
ATOM     31  C   UNL d   1     -54.734-102.719 -41.172  0.00  0.00     0.100 C 
ENDBRANCH  28  29
ENDBRANCH  27  28
ENDBRANCH   2  27
TORSDOF 7
ENDMDL
MODEL 2
REMARK VINA RESULT:     108.0      2.228      4.085
REMARK  7 active torsions:
REMARK  status: ('A' for Active; 'I' for Inactive)
REMARK    1  A    between atoms: C_7  and  C_1 
REMARK    2  A    between atoms: C_11  and  N_2 
REMARK    3  A    between atoms: C_10  and  C_5 
REMARK    4  A    between atoms: C_6  and  C_7 
REMARK    5  A    between atoms: C_18  and  C_11 
REMARK    6  A    between atoms: O_20  and  C_15 
REMARK    7  A    between atoms: N_19  and  C_18 
ROOT
ATOM      1  C   UNL d   1     -58.304 -99.231 -43.819  0.00  0.00     0.101 A 
ATOM      2  N   UNL d   1     -58.474 -99.500 -45.115  0.00  0.00    -0.269 N 
ATOM      3  C   UNL d   1     -59.117 -99.228 -43.978  0.00  0.00     0.256 A 
ATOM      4  C   UNL d   1     -59.221 -99.394 -44.776  0.00  0.00     0.304 A 
ATOM      5  C   UNL d   1     -57.914 -99.399 -44.525  0.00  0.00     0.075 A 
ATOM      6  O   UNL d   1     -59.951 -99.445 -45.169  0.00  0.00    -0.263 OA
ATOM      7  O   UNL d   1     -59.723 -99.083 -43.428  0.00  0.00    -0.281 OA
ENDROOT
BRANCH   1   8
ATOM      8  C   UNL d   1     -57.956 -99.090 -43.084  0.00  0.00     0.223 C 
ATOM      9  O   UNL d   1     -57.173 -98.825 -43.043  0.00  0.00    -0.284 OA
BRANCH   8  10
ATOM     10  C   UNL d   1     -58.380 -99.210 -42.388  0.00  0.00     0.139 A 
ATOM     11  O   UNL d   1     -58.937 -99.808 -42.252  0.00  0.00    -0.304 OA
ATOM     12  C   UNL d   1     -59.219 -99.715 -41.485  0.00  0.00     0.100 A 
ATOM     13  C   UNL d   1     -59.776-100.145 -41.052  0.00  0.00     0.025 A 
ATOM     14  C   UNL d   1     -58.846 -99.071 -41.147  0.00  0.00     0.025 A 
ATOM     15  C   UNL d   1     -59.953 -99.925 -40.284  0.00  0.00     0.002 A 
ATOM     16  C   UNL d   1     -59.574 -99.274 -39.949  0.00  0.00     0.000 A 
ATOM     17  C   UNL d   1     -59.023 -98.848 -40.374  0.00  0.00     0.002 A 
ATOM     18  C   UNL d   1     -58.326 -98.759 -41.709  0.00  0.00     0.030 A 
ENDBRANCH   8  10
ENDBRANCH   1   8
BRANCH   5  19
ATOM     19  C   UNL d   1     -57.084 -99.455 -44.612  0.00  0.00     0.039 A 
ATOM     20  C   UNL d   1     -56.714-100.194 -44.551  0.00  0.00     0.096 A 
ATOM     21  C   UNL d   1     -55.898-100.253 -44.637  0.00  0.00     0.024 A 
ATOM     22  C   UNL d   1     -55.438 -99.567 -44.786  0.00  0.00     0.002 A 
ATOM     23  C   UNL d   1     -55.817 -98.827 -44.846  0.00  0.00     0.000 A 
ATOM     24  C   UNL d   1     -56.638 -98.777 -44.759  0.00  0.00     0.003 A 
BRANCH  20  25
ATOM     25  O   UNL d   1     -57.168-100.867 -44.404  0.00  0.00    -0.328 OA
ATOM     26  C   UNL d   1     -56.957-101.587 -44.753  0.00  0.00     0.181 C 
ENDBRANCH  20  25
ENDBRANCH   5  19
BRANCH   2  27
ATOM     27  C   UNL d   1     -58.326 -99.677 -45.912  0.00  0.00     0.102 C 
BRANCH  27  28
ATOM     28  C   UNL d   1     -58.462 -99.112 -46.496  0.00  0.00     0.100 C 
BRANCH  28  29
ATOM     29  N   UNL d   1     -58.772 -99.341 -47.232  0.00  0.00    -0.299 N 
ATOM     30  C   UNL d   1     -59.209 -98.799 -47.677  0.00  0.00     0.100 C 
ATOM     31  C   UNL d   1     -58.641-100.103 -47.510  0.00  0.00     0.100 C 
ENDBRANCH  28  29
ENDBRANCH  27  28
ENDBRANCH   2  27
TORSDOF 7
ENDMDL
