MODEL 1
REMARK VINA RESULT:      37.1      0.000      0.000
REMARK  4 active torsions:
REMARK  status: ('A' for Active; 'I' for Inactive)
REMARK    1  A    between atoms: C_5  and  N_1 
REMARK    2  A    between atoms: C_7  and  C_5 
REMARK    3  A    between atoms: O_10  and  C_9 
REMARK    4  A    between atoms: C_15  and  O_10 
ROOT
ATOM      1  N   UNL d   1     -54.830-100.984 -37.490  0.00  0.00    -0.268 N 
ATOM      2  C   UNL d   1     -54.965-100.201 -37.244  0.00  0.00     0.296 A 
ATOM      3  S   UNL d   1     -55.048-100.208 -36.423  0.00  0.00    -0.025 SA
ATOM      4  C   UNL d   1     -54.832-101.467 -36.818  0.00  0.00     0.073 A 
ATOM      5  C   UNL d   1     -54.968-100.983 -36.160  0.00  0.00     0.050 A 
ATOM      6  O   UNL d   1     -55.007 -99.539 -37.733  0.00  0.00    -0.259 OA
ATOM      7  C   UNL d   1     -54.729-102.275 -36.725  0.00  0.00     0.018 A 
ATOM      8  C   UNL d   1     -54.998-101.326 -35.400  0.00  0.00     0.008 A 
ATOM      9  C   UNL d   1     -54.760-102.611 -35.973  0.00  0.00     0.002 A 
ATOM     10  C   UNL d   1     -54.893-102.140 -35.316  0.00  0.00     0.001 A 
ENDROOT
BRANCH   1  11
ATOM     11  C   UNL d   1     -54.716-101.236 -38.265  0.00  0.00     0.086 C 
BRANCH  11  12
ATOM     12  C   UNL d   1     -55.237-101.785 -38.598  0.00  0.00     0.040 A 
ATOM     13  C   UNL d   1     -55.251-101.878 -39.413  0.00  0.00     0.102 A 
ATOM     14  C   UNL d   1     -55.765-102.420 -39.744  0.00  0.00     0.025 A 
ATOM     15  C   UNL d   1     -56.271-102.874 -39.262  0.00  0.00     0.002 A 
ATOM     16  C   UNL d   1     -56.248-102.771 -38.444  0.00  0.00     0.000 A 
ATOM     17  C   UNL d   1     -55.726-102.222 -38.111  0.00  0.00     0.004 A 
BRANCH  13  18
ATOM     18  O   UNL d   1     -54.740-101.416 -39.863  0.00  0.00    -0.305 OA
BRANCH  18  19
ATOM     19  C   UNL d   1     -54.782-101.438 -40.689  0.00  0.00     0.123 C 
ATOM     20  C   UNL d   1     -54.723-102.165 -41.083  0.00  0.00     0.029 C 
ENDBRANCH  18  19
ENDBRANCH  13  18
ENDBRANCH  11  12
ENDBRANCH   1  11
TORSDOF 4
ENDMDL
MODEL 2
REMARK VINA RESULT:      37.5      6.437      7.761
REMARK  4 active torsions:
REMARK  status: ('A' for Active; 'I' for Inactive)
REMARK    1  A    between atoms: C_5  and  N_1 
REMARK    2  A    between atoms: C_7  and  C_5 
REMARK    3  A    between atoms: O_10  and  C_9 
REMARK    4  A    between atoms: C_15  and  O_10 
ROOT
ATOM      1  N   UNL d   1     -57.441 -99.072 -44.578  0.00  0.00    -0.268 N 
ATOM      2  C   UNL d   1     -57.580 -99.007 -43.761  0.00  0.00     0.296 A 
ATOM      3  S   UNL d   1     -58.388 -98.879 -43.654  0.00  0.00    -0.025 SA
ATOM      4  C   UNL d   1     -58.165 -98.983 -44.969  0.00  0.00     0.073 A 
ATOM      5  C   UNL d   1     -58.749 -98.864 -44.394  0.00  0.00     0.050 A 
ATOM      6  O   UNL d   1     -57.013 -99.061 -43.166  0.00  0.00    -0.259 OA
ATOM      7  C   UNL d   1     -58.362 -98.996 -45.765  0.00  0.00     0.018 A 
ATOM      8  C   UNL d   1     -59.541 -98.757 -44.632  0.00  0.00     0.008 A 
ATOM      9  C   UNL d   1     -59.146 -98.890 -45.996  0.00  0.00     0.002 A 
ATOM     10  C   UNL d   1     -59.731 -98.771 -45.435  0.00  0.00     0.001 A 
ENDROOT
BRANCH   1  11
ATOM     11  C   UNL d   1     -56.712 -99.202 -44.937  0.00  0.00     0.086 C 
BRANCH  11  12
ATOM     12  C   UNL d   1     -56.041 -99.325 -44.467  0.00  0.00     0.040 A 
ATOM     13  C   UNL d   1     -55.614-100.019 -44.559  0.00  0.00     0.102 A 
ATOM     14  C   UNL d   1     -54.951-100.142 -44.096  0.00  0.00     0.025 A 
ATOM     15  C   UNL d   1     -54.711 -99.573 -43.538  0.00  0.00     0.002 A 
ATOM     16  C   UNL d   1     -55.150 -98.879 -43.455  0.00  0.00     0.000 A 
ATOM     17  C   UNL d   1     -55.820 -98.756 -43.925  0.00  0.00     0.004 A 
BRANCH  13  18
ATOM     18  O   UNL d   1     -55.874-100.563 -45.118  0.00  0.00    -0.305 OA
BRANCH  18  19
ATOM     19  C   UNL d   1     -55.388-101.195 -45.337  0.00  0.00     0.123 C 
ATOM     20  C   UNL d   1     -55.488-101.934 -44.976  0.00  0.00     0.029 C 
ENDBRANCH  18  19
ENDBRANCH  13  18
ENDBRANCH  11  12
ENDBRANCH   1  11
TORSDOF 4
ENDMDL
