MODEL 1
REMARK VINA RESULT:     111.1      0.000      0.000
REMARK  5 active torsions:
REMARK  status: ('A' for Active; 'I' for Inactive)
REMARK    1  A    between atoms: C_22  and  N_10 
REMARK    2  A    between atoms: C_19  and  N_13 
REMARK    3  A    between atoms: N_14  and  C_26 
REMARK    4  A    between atoms: C_25  and  C_22 
REMARK    5  A    between atoms: C_26  and  C_25 
ROOT
ATOM      1  C   UNL d   1     -55.343-100.349 -44.370  0.00  0.00     0.173 A 
ATOM      2  C   UNL d   1     -55.281-101.059 -44.003  0.00  0.00     0.191 A 
ATOM      3  C   UNL d   1     -55.115-100.419 -42.746  0.00  0.00     0.722 A 
ATOM      4  N   UNL d   1     -55.177 -99.682 -43.113  0.00  0.00    -0.131 N 
ATOM      5  N   UNL d   1     -55.167-101.107 -43.191  0.00  0.00    -0.042 NA
ATOM      6  N   UNL d   1     -55.331-101.753 -44.433  0.00  0.00    -0.240 N 
ATOM      7  N   UNL d   1     -55.510-100.938 -45.628  0.00  0.00    -0.223 N 
ATOM      8  C   UNL d   1     -55.446-101.695 -45.251  0.00  0.00     0.343 A 
ATOM      9  C   UNL d   1     -55.457-100.259 -45.178  0.00  0.00     0.288 A 
ATOM     10  N   UNL d   1     -55.000-100.463 -41.927  0.00  0.00    -0.139 N 
ATOM     11  C   UNL d   1     -55.010 -99.037 -41.846  0.00  0.00     0.116 A 
ATOM     12  C   UNL d   1     -54.948 -99.773 -41.479  0.00  0.00     0.100 A 
ATOM     13  O   UNL d   1     -55.496-102.429 -45.685  0.00  0.00    -0.245 OA
ATOM     14  O   UNL d   1     -55.519 -99.524 -45.544  0.00  0.00    -0.265 OA
ATOM     15  C   UNL d   1     -55.269-102.489 -44.066  0.00  0.00     0.105 C 
ATOM     16  C   UNL d   1     -55.623-100.886 -46.433  0.00  0.00     0.107 C 
ATOM     17  C   UNL d   1     -54.832 -99.843 -40.660  0.00  0.00     0.021 C 
ENDROOT
BRANCH  10  18
ATOM     18  C   UNL d   1     -54.938-101.197 -41.557  0.00  0.00     0.100 C 
BRANCH  18  19
ATOM     19  C   UNL d   1     -55.157-101.890 -41.958  0.00  0.00     0.039 C 
BRANCH  19  20
ATOM     20  C   UNL d   1     -55.362-102.556 -41.539  0.00  0.00     0.082 C 
BRANCH  20  21
ATOM     21  N   UNL d   1     -55.457-102.519 -40.723  0.00  0.00    -0.300 N 
ATOM     22  C   UNL d   1     -56.216-102.487 -40.402  0.00  0.00     0.100 A 
ATOM     23  C   UNL d   1     -56.307-102.449 -39.588  0.00  0.00     0.100 A 
ATOM     24  N   UNL d   1     -55.648-102.444 -39.100  0.00  0.00    -0.301 N 
ATOM     25  C   UNL d   1     -54.898-102.476 -39.426  0.00  0.00     0.100 A 
ATOM     26  C   UNL d   1     -54.798-102.514 -40.245  0.00  0.00     0.100 A 
BRANCH  24  27
ATOM     27  C   UNL d   1     -55.742-102.406 -38.284  0.00  0.00     0.064 A 
ATOM     28  C   UNL d   1     -55.168-102.056 -37.820  0.00  0.00     0.018 A 
ATOM     29  C   UNL d   1     -55.255-102.015 -37.009  0.00  0.00     0.002 A 
ATOM     30  C   UNL d   1     -55.932-102.333 -36.657  0.00  0.00     0.000 A 
ATOM     31  C   UNL d   1     -56.515-102.689 -37.126  0.00  0.00     0.002 A 
ATOM     32  C   UNL d   1     -56.418-102.724 -37.933  0.00  0.00     0.018 A 
ENDBRANCH  24  27
ENDBRANCH  20  21
ENDBRANCH  19  20
ENDBRANCH  18  19
ENDBRANCH  10  18
TORSDOF 5
ENDMDL
