MODEL 1
REMARK VINA RESULT:      -6.9      0.000      0.000
REMARK  6 active torsions:
REMARK  status: ('A' for Active; 'I' for Inactive)
REMARK    1  A    between atoms: C_4  and  C_1 
REMARK    2  A    between atoms: C_7  and  C_4 
REMARK    3  A    between atoms: N_10  and  C_7 
REMARK    4  A    between atoms: C_13  and  N_10 
REMARK    5  A    between atoms: O_18  and  C_11 
REMARK    6  A    between atoms: O_20  and  C_15 
ROOT
ATOM      1  C   UNL d   1     -48.612  12.646  22.971  0.00  0.00     0.122 C 
ATOM      2  C   UNL d   1     -48.842  11.903  23.239  0.00  0.00     0.106 C 
ATOM      3  N   UNL d   1     -49.072  11.158  23.507  0.00  0.00    -0.191 NA
ENDROOT
BRANCH   1   4
ATOM      4  C   UNL d   1     -49.153  13.269  22.967  0.00  0.00     0.159 A 
ATOM      5  N   UNL d   1     -49.249  13.835  23.561  0.00  0.00    -0.226 NA
ATOM      6  C   UNL d   1     -49.845  14.348  23.331  0.00  0.00     0.099 A 
ATOM      7  C   UNL d   1     -50.179  15.015  23.696  0.00  0.00     0.021 A 
ATOM      8  C   UNL d   1     -50.121  14.104  22.593  0.00  0.00     0.083 A 
ATOM      9  C   UNL d   1     -50.787  15.428  23.316  0.00  0.00     0.002 A 
ATOM     10  C   UNL d   1     -51.063  15.184  22.579  0.00  0.00     0.002 A 
ATOM     11  C   UNL d   1     -50.735  14.524  22.213  0.00  0.00     0.019 A 
ATOM     12  N   UNL d   1     -49.697  13.439  22.366  0.00  0.00    -0.287 N 
ATOM     13  C   UNL d   1     -49.789  13.007  21.662  0.00  0.00     0.101 C 
ENDBRANCH   1   4
BRANCH   1  14
ATOM     14  C   UNL d   1     -47.842  12.767  22.707  0.00  0.00     0.112 C 
BRANCH  14  15
ATOM     15  N   UNL d   1     -47.213  12.381  23.077  0.00  0.00    -0.241 NA
BRANCH  15  16
ATOM     16  C   UNL d   1     -46.440  12.528  22.836  0.00  0.00     0.104 A 
ATOM     17  C   UNL d   1     -45.829  12.028  23.077  0.00  0.00     0.114 A 
ATOM     18  C   UNL d   1     -45.056  12.176  22.836  0.00  0.00     0.050 A 
ATOM     19  C   UNL d   1     -44.890  12.824  22.351  0.00  0.00     0.096 A 
ATOM     20  C   UNL d   1     -45.503  13.321  22.112  0.00  0.00     0.026 A 
ATOM     21  C   UNL d   1     -46.277  13.175  22.353  0.00  0.00     0.023 A 
BRANCH  17  22
ATOM     22  O   UNL d   1     -45.992  11.382  23.560  0.00  0.00    -0.327 OA
ATOM     23  C   UNL d   1     -45.435  10.780  23.647  0.00  0.00     0.181 C 
ENDBRANCH  17  22
BRANCH  19  24
ATOM     24  O   UNL d   1     -44.117  12.971  22.110  0.00  0.00    -0.328 OA
ATOM     25  C   UNL d   1     -43.885  12.811  21.329  0.00  0.00     0.181 C 
ENDBRANCH  19  24
ENDBRANCH  15  16
ENDBRANCH  14  15
ENDBRANCH   1  14
TORSDOF 6
ENDMDL
MODEL 2
REMARK VINA RESULT:      -5.7      1.330      2.438
REMARK  6 active torsions:
REMARK  status: ('A' for Active; 'I' for Inactive)
REMARK    1  A    between atoms: C_4  and  C_1 
REMARK    2  A    between atoms: C_7  and  C_4 
REMARK    3  A    between atoms: N_10  and  C_7 
REMARK    4  A    between atoms: C_13  and  N_10 
REMARK    5  A    between atoms: O_18  and  C_11 
REMARK    6  A    between atoms: O_20  and  C_15 
ROOT
ATOM      1  C   UNL d   1     -47.313  13.451  22.692  0.00  0.00     0.122 C 
ATOM      2  C   UNL d   1     -47.040  14.227  22.702  0.00  0.00     0.106 C 
ATOM      3  N   UNL d   1     -46.767  15.004  22.713  0.00  0.00    -0.191 NA
ENDROOT
BRANCH   1   4
ATOM      4  C   UNL d   1     -48.078  13.285  22.432  0.00  0.00     0.159 A 
ATOM      5  N   UNL d   1     -48.295  13.058  21.667  0.00  0.00    -0.226 NA
ATOM      6  C   UNL d   1     -49.107  12.951  21.655  0.00  0.00     0.099 A 
ATOM      7  C   UNL d   1     -49.631  12.727  21.050  0.00  0.00     0.021 A 
ATOM      8  C   UNL d   1     -49.398  13.110  22.410  0.00  0.00     0.083 A 
ATOM      9  C   UNL d   1     -50.440  12.665  21.211  0.00  0.00     0.002 A 
ATOM     10  C   UNL d   1     -50.730  12.823  21.966  0.00  0.00     0.002 A 
ATOM     11  C   UNL d   1     -50.216  13.046  22.568  0.00  0.00     0.019 A 
ATOM     12  N   UNL d   1     -48.767  13.316  22.892  0.00  0.00    -0.287 N 
ATOM     13  C   UNL d   1     -48.801  13.521  23.696  0.00  0.00     0.101 C 
ENDBRANCH   1   4
BRANCH   1  14
ATOM     14  C   UNL d   1     -46.821  12.839  22.941  0.00  0.00     0.112 C 
BRANCH  14  15
ATOM     15  N   UNL d   1     -46.055  12.777  22.641  0.00  0.00    -0.241 NA
BRANCH  15  16
ATOM     16  C   UNL d   1     -45.558  12.173  22.899  0.00  0.00     0.104 A 
ATOM     17  C   UNL d   1     -44.779  12.136  22.631  0.00  0.00     0.114 A 
ATOM     18  C   UNL d   1     -44.283  11.531  22.889  0.00  0.00     0.050 A 
ATOM     19  C   UNL d   1     -44.565  10.961  23.416  0.00  0.00     0.096 A 
ATOM     20  C   UNL d   1     -45.345  11.002  23.682  0.00  0.00     0.026 A 
ATOM     21  C   UNL d   1     -45.842  11.606  23.425  0.00  0.00     0.023 A 
BRANCH  17  22
ATOM     22  O   UNL d   1     -44.496  12.702  22.105  0.00  0.00    -0.327 OA
ATOM     23  C   UNL d   1     -43.793  12.570  21.695  0.00  0.00     0.181 C 
ENDBRANCH  17  22
BRANCH  19  24
ATOM     24  O   UNL d   1     -44.069  10.356  23.674  0.00  0.00    -0.328 OA
ATOM     25  C   UNL d   1     -44.292   9.562  23.575  0.00  0.00     0.181 C 
ENDBRANCH  19  24
ENDBRANCH  15  16
ENDBRANCH  14  15
ENDBRANCH   1  14
TORSDOF 6
ENDMDL
MODEL 3
REMARK VINA RESULT:      -5.6      1.273      1.710
REMARK  6 active torsions:
REMARK  status: ('A' for Active; 'I' for Inactive)
REMARK    1  A    between atoms: C_4  and  C_1 
REMARK    2  A    between atoms: C_7  and  C_4 
REMARK    3  A    between atoms: N_10  and  C_7 
REMARK    4  A    between atoms: C_13  and  N_10 
REMARK    5  A    between atoms: O_18  and  C_11 
REMARK    6  A    between atoms: O_20  and  C_15 
ROOT
ATOM      1  C   UNL d   1     -47.767  13.845  22.573  0.00  0.00     0.122 C 
ATOM      2  C   UNL d   1     -47.668  14.649  22.715  0.00  0.00     0.106 C 
ATOM      3  N   UNL d   1     -47.568  15.454  22.857  0.00  0.00    -0.191 NA
ENDROOT
BRANCH   1   4
ATOM      4  C   UNL d   1     -48.510  13.497  22.668  0.00  0.00     0.159 A 
ATOM      5  N   UNL d   1     -48.823  13.200  23.372  0.00  0.00    -0.226 NA
ATOM      6  C   UNL d   1     -49.572  12.907  23.215  0.00  0.00     0.099 A 
ATOM      7  C   UNL d   1     -50.142  12.546  23.698  0.00  0.00     0.021 A 
ATOM      8  C   UNL d   1     -49.727  13.021  22.413  0.00  0.00     0.083 A 
ATOM      9  C   UNL d   1     -50.862  12.304  23.370  0.00  0.00     0.002 A 
ATOM     10  C   UNL d   1     -51.018  12.418  22.569  0.00  0.00     0.002 A 
ATOM     11  C   UNL d   1     -50.455  12.775  22.086  0.00  0.00     0.019 A 
ATOM     12  N   UNL d   1     -49.075  13.385  22.072  0.00  0.00    -0.287 N 
ATOM     13  C   UNL d   1     -48.987  13.604  21.276  0.00  0.00     0.101 C 
ENDBRANCH   1   4
BRANCH   1  14
ATOM     14  C   UNL d   1     -47.125  13.387  22.336  0.00  0.00     0.112 C 
BRANCH  14  15
ATOM     15  N   UNL d   1     -46.547  13.172  22.884  0.00  0.00    -0.241 NA
BRANCH  15  16
ATOM     16  C   UNL d   1     -45.808  12.918  22.626  0.00  0.00     0.104 A 
ATOM     17  C   UNL d   1     -45.446  12.267  22.981  0.00  0.00     0.114 A 
ATOM     18  C   UNL d   1     -44.707  12.014  22.722  0.00  0.00     0.050 A 
ATOM     19  C   UNL d   1     -44.326  12.412  22.106  0.00  0.00     0.096 A 
ATOM     20  C   UNL d   1     -44.690  13.063  21.754  0.00  0.00     0.026 A 
ATOM     21  C   UNL d   1     -45.429  13.317  22.012  0.00  0.00     0.023 A 
BRANCH  17  22
ATOM     22  O   UNL d   1     -45.824  11.870  23.594  0.00  0.00    -0.327 OA
ATOM     23  C   UNL d   1     -45.704  11.060  23.698  0.00  0.00     0.181 C 
ENDBRANCH  17  22
BRANCH  19  24
ATOM     24  O   UNL d   1     -43.586  12.159  21.847  0.00  0.00    -0.328 OA
ATOM     25  C   UNL d   1     -43.085  12.681  21.438  0.00  0.00     0.181 C 
ENDBRANCH  19  24
ENDBRANCH  15  16
ENDBRANCH  14  15
ENDBRANCH   1  14
TORSDOF 6
ENDMDL
MODEL 4
REMARK VINA RESULT:      -4.8      1.009      1.732
REMARK  6 active torsions:
REMARK  status: ('A' for Active; 'I' for Inactive)
REMARK    1  A    between atoms: C_4  and  C_1 
REMARK    2  A    between atoms: C_7  and  C_4 
REMARK    3  A    between atoms: N_10  and  C_7 
REMARK    4  A    between atoms: C_13  and  N_10 
REMARK    5  A    between atoms: O_18  and  C_11 
REMARK    6  A    between atoms: O_20  and  C_15 
ROOT
ATOM      1  C   UNL d   1     -48.385  13.274  22.299  0.00  0.00     0.122 C 
ATOM      2  C   UNL d   1     -48.454  13.050  21.511  0.00  0.00     0.106 C 
ATOM      3  N   UNL d   1     -48.523  12.825  20.721  0.00  0.00    -0.191 NA
ENDROOT
BRANCH   1   4
ATOM      4  C   UNL d   1     -48.909  13.826  22.619  0.00  0.00     0.159 A 
ATOM      5  N   UNL d   1     -48.751  14.625  22.759  0.00  0.00    -0.226 NA
ATOM      6  C   UNL d   1     -49.423  14.965  23.080  0.00  0.00     0.099 A 
ATOM      7  C   UNL d   1     -49.592  15.739  23.329  0.00  0.00     0.021 A 
ATOM      8  C   UNL d   1     -50.002  14.380  23.141  0.00  0.00     0.083 A 
ATOM      9  C   UNL d   1     -50.339  15.917  23.637  0.00  0.00     0.002 A 
ATOM     10  C   UNL d   1     -50.917  15.333  23.698  0.00  0.00     0.002 A 
ATOM     11  C   UNL d   1     -50.754  14.564  23.453  0.00  0.00     0.019 A 
ATOM     12  N   UNL d   1     -49.688  13.677  22.859  0.00  0.00    -0.287 N 
ATOM     13  C   UNL d   1     -50.074  12.942  22.815  0.00  0.00     0.101 C 
ENDBRANCH   1   4
BRANCH   1  14
ATOM     14  C   UNL d   1     -47.793  12.948  22.769  0.00  0.00     0.112 C 
BRANCH  14  15
ATOM     15  N   UNL d   1     -47.003  13.012  22.540  0.00  0.00    -0.241 NA
BRANCH  15  16
ATOM     16  C   UNL d   1     -46.445  12.479  22.829  0.00  0.00     0.104 A 
ATOM     17  C   UNL d   1     -45.648  12.569  22.634  0.00  0.00     0.114 A 
ATOM     18  C   UNL d   1     -45.091  12.036  22.923  0.00  0.00     0.050 A 
ATOM     19  C   UNL d   1     -45.329  11.411  23.408  0.00  0.00     0.096 A 
ATOM     20  C   UNL d   1     -46.127  11.324  23.600  0.00  0.00     0.026 A 
ATOM     21  C   UNL d   1     -46.685  11.857  23.312  0.00  0.00     0.023 A 
BRANCH  17  22
ATOM     22  O   UNL d   1     -45.409  13.191  22.152  0.00  0.00    -0.327 OA
ATOM     23  C   UNL d   1     -44.699  13.141  21.734  0.00  0.00     0.181 C 
ENDBRANCH  17  22
BRANCH  19  24
ATOM     24  O   UNL d   1     -44.772  10.878  23.697  0.00  0.00    -0.328 OA
ATOM     25  C   UNL d   1     -44.809  10.076  23.482  0.00  0.00     0.181 C 
ENDBRANCH  19  24
ENDBRANCH  15  16
ENDBRANCH  14  15
ENDBRANCH   1  14
TORSDOF 6
ENDMDL
