MODEL 1
REMARK VINA RESULT:      -2.1      0.000      0.000
REMARK  5 active torsions:
REMARK  status: ('A' for Active; 'I' for Inactive)
REMARK    1  A    between atoms: C_7  and  C_1 
REMARK    2  A    between atoms: C_6  and  C_3 
REMARK       I    between atoms: N_8  and  C_6 
REMARK    3  A    between atoms: O_14  and  C_7 
REMARK    4  A    between atoms: C_13  and  N_8 
REMARK    5  A    between atoms: C_15  and  O_14 
ROOT
ATOM      1  C   UNL d   1      58.526  -0.415  29.902  0.00  0.00     0.090 A 
ATOM      2  C   UNL d   1      58.568  -1.044  29.363  0.00  0.00     0.138 A 
ATOM      3  C   UNL d   1      59.710  -0.412  29.334  0.00  0.00     0.089 A 
ATOM      4  C   UNL d   1      59.253  -0.024  29.875  0.00  0.00     0.018 A 
ATOM      5  S   UNL d   1      59.314  -1.000  29.040  0.00  0.00    -0.061 SA
ATOM      6  N   UNL d   1      57.944  -1.592  29.211  0.00  0.00    -0.141 N 
ATOM      7  C   UNL d   1      59.438   0.664  30.352  0.00  0.00     0.001 C 
ENDROOT
BRANCH   3   8
ATOM      8  C   UNL d   1      60.464  -0.143  29.194  0.00  0.00     0.285 C 
ATOM      9  N   UNL d   1      61.052  -0.681  29.064  0.00  0.00    -0.208 NA
ATOM     10  O   UNL d   1      60.608   0.679  29.187  0.00  0.00    -0.265 OA
BRANCH   9  11
ATOM     11  C   UNL d   1      60.890  -1.487  29.075  0.00  0.00     0.085 A 
ATOM     12  C   UNL d   1      60.620  -1.866  28.456  0.00  0.00     0.019 A 
ATOM     13  C   UNL d   1      60.481  -2.650  28.524  0.00  0.00     0.002 A 
ATOM     14  C   UNL d   1      60.595  -3.077  29.174  0.00  0.00     0.000 A 
ATOM     15  C   UNL d   1      60.884  -2.723  29.868  0.00  0.00     0.002 A 
ATOM     16  C   UNL d   1      61.029  -1.894  29.789  0.00  0.00     0.019 A 
ENDBRANCH   9  11
ENDBRANCH   3   8
BRANCH   1  17
ATOM     17  C   UNL d   1      57.885  -0.229  30.363  0.00  0.00     0.302 C 
ATOM     18  O   UNL d   1      57.379   0.403  30.152  0.00  0.00    -0.259 OA
BRANCH  17  19
ATOM     19  O   UNL d   1      57.713  -0.654  31.048  0.00  0.00    -0.271 OA
BRANCH  19  20
ATOM     20  C   UNL d   1      57.095  -0.397  31.523  0.00  0.00     0.126 C 
ATOM     21  C   UNL d   1      56.711  -0.943  32.006  0.00  0.00     0.029 C 
ENDBRANCH  19  20
ENDBRANCH  17  19
ENDBRANCH   1  17
TORSDOF 5
ENDMDL
MODEL 2
REMARK VINA RESULT:      -1.6      1.432      2.070
REMARK  5 active torsions:
REMARK  status: ('A' for Active; 'I' for Inactive)
REMARK    1  A    between atoms: C_7  and  C_1 
REMARK    2  A    between atoms: C_6  and  C_3 
REMARK       I    between atoms: N_8  and  C_6 
REMARK    3  A    between atoms: O_14  and  C_7 
REMARK    4  A    between atoms: C_13  and  N_8 
REMARK    5  A    between atoms: C_15  and  O_14 
ROOT
ATOM      1  C   UNL d   1      58.055  -0.718  30.098  0.00  0.00     0.090 A 
ATOM      2  C   UNL d   1      58.193  -0.086  29.579  0.00  0.00     0.138 A 
ATOM      3  C   UNL d   1      58.890  -1.109  29.165  0.00  0.00     0.089 A 
ATOM      4  C   UNL d   1      58.500  -1.358  29.826  0.00  0.00     0.018 A 
ATOM      5  S   UNL d   1      58.713  -0.376  29.023  0.00  0.00    -0.061 SA
ATOM      6  N   UNL d   1      57.848   0.681  29.648  0.00  0.00    -0.141 N 
ATOM      7  C   UNL d   1      58.512  -2.124  30.211  0.00  0.00     0.001 C 
ENDROOT
BRANCH   3   8
ATOM      8  C   UNL d   1      59.377  -1.633  28.777  0.00  0.00     0.285 C 
ATOM      9  N   UNL d   1      60.158  -1.448  28.690  0.00  0.00    -0.208 NA
ATOM     10  O   UNL d   1      59.056  -2.344  28.481  0.00  0.00    -0.265 OA
BRANCH   9  11
ATOM     11  C   UNL d   1      60.456  -0.742  28.989  0.00  0.00     0.085 A 
ATOM     12  C   UNL d   1      60.655  -0.656  29.733  0.00  0.00     0.019 A 
ATOM     13  C   UNL d   1      60.939   0.053  29.967  0.00  0.00     0.002 A 
ATOM     14  C   UNL d   1      61.036   0.681  29.503  0.00  0.00     0.000 A 
ATOM     15  C   UNL d   1      60.840   0.645  28.697  0.00  0.00     0.002 A 
ATOM     16  C   UNL d   1      60.540  -0.107  28.455  0.00  0.00     0.019 A 
ENDBRANCH   9  11
ENDBRANCH   3   8
BRANCH   1  17
ATOM     17  C   UNL d   1      57.570  -0.698  30.748  0.00  0.00     0.302 C 
ATOM     18  O   UNL d   1      56.991  -1.292  30.865  0.00  0.00    -0.259 OA
BRANCH  17  19
ATOM     19  O   UNL d   1      57.630  -0.097  31.309  0.00  0.00    -0.271 OA
BRANCH  19  20
ATOM     20  C   UNL d   1      57.277  -0.210  32.042  0.00  0.00     0.126 C 
ATOM     21  C   UNL d   1      57.445   0.321  32.650  0.00  0.00     0.029 C 
ENDBRANCH  19  20
ENDBRANCH  17  19
ENDBRANCH   1  17
TORSDOF 5
ENDMDL
MODEL 3
REMARK VINA RESULT:      -0.8      1.510      2.154
REMARK  5 active torsions:
REMARK  status: ('A' for Active; 'I' for Inactive)
REMARK    1  A    between atoms: C_7  and  C_1 
REMARK    2  A    between atoms: C_6  and  C_3 
REMARK       I    between atoms: N_8  and  C_6 
REMARK    3  A    between atoms: O_14  and  C_7 
REMARK    4  A    between atoms: C_13  and  N_8 
REMARK    5  A    between atoms: C_15  and  O_14 
ROOT
ATOM      1  C   UNL d   1      57.894  -0.058  30.995  0.00  0.00     0.090 A 
ATOM      2  C   UNL d   1      58.516   0.458  31.182  0.00  0.00     0.138 A 
ATOM      3  C   UNL d   1      58.459   0.350  29.883  0.00  0.00     0.089 A 
ATOM      4  C   UNL d   1      57.868  -0.118  30.172  0.00  0.00     0.018 A 
ATOM      5  S   UNL d   1      58.832   0.682  30.465  0.00  0.00    -0.061 SA
ATOM      6  N   UNL d   1      58.742   0.679  31.965  0.00  0.00    -0.141 N 
ATOM      7  C   UNL d   1      57.299  -0.601  29.751  0.00  0.00     0.001 C 
ENDROOT
BRANCH   3   8
ATOM      8  C   UNL d   1      58.562   0.397  29.077  0.00  0.00     0.285 C 
ATOM      9  N   UNL d   1      59.273   0.177  28.762  0.00  0.00    -0.208 NA
ATOM     10  O   UNL d   1      57.933   0.670  28.601  0.00  0.00    -0.265 OA
BRANCH   9  11
ATOM     11  C   UNL d   1      59.880  -0.089  29.248  0.00  0.00     0.085 A 
ATOM     12  C   UNL d   1      59.950  -0.831  29.460  0.00  0.00     0.019 A 
ATOM     13  C   UNL d   1      60.560  -1.032  29.934  0.00  0.00     0.002 A 
ATOM     14  C   UNL d   1      61.106  -0.537  30.208  0.00  0.00     0.000 A 
ATOM     15  C   UNL d   1      61.081   0.270  30.013  0.00  0.00     0.002 A 
ATOM     16  C   UNL d   1      60.433   0.477  29.512  0.00  0.00     0.019 A 
ENDBRANCH   9  11
ENDBRANCH   3   8
BRANCH   1  17
ATOM     17  C   UNL d   1      57.410  -0.427  31.530  0.00  0.00     0.302 C 
ATOM     18  O   UNL d   1      57.353  -1.262  31.546  0.00  0.00    -0.259 OA
BRANCH  17  19
ATOM     19  O   UNL d   1      56.962   0.004  32.072  0.00  0.00    -0.271 OA
BRANCH  19  20
ATOM     20  C   UNL d   1      56.283  -0.340  32.379  0.00  0.00     0.126 C 
ATOM     21  C   UNL d   1      56.006  -0.087  33.113  0.00  0.00     0.029 C 
ENDBRANCH  19  20
ENDBRANCH  17  19
ENDBRANCH   1  17
TORSDOF 5
ENDMDL
MODEL 4
REMARK VINA RESULT:      -0.8      8.160      9.282
REMARK  5 active torsions:
REMARK  status: ('A' for Active; 'I' for Inactive)
REMARK    1  A    between atoms: C_7  and  C_1 
REMARK    2  A    between atoms: C_6  and  C_3 
REMARK       I    between atoms: N_8  and  C_6 
REMARK    3  A    between atoms: O_14  and  C_7 
REMARK    4  A    between atoms: C_13  and  N_8 
REMARK    5  A    between atoms: C_15  and  O_14 
ROOT
ATOM      1  C   UNL d   1      59.849  -7.410  35.762  0.00  0.00     0.090 A 
ATOM      2  C   UNL d   1      59.227  -7.746  35.329  0.00  0.00     0.138 A 
ATOM      3  C   UNL d   1      60.115  -8.677  35.551  0.00  0.00     0.089 A 
ATOM      4  C   UNL d   1      60.403  -8.007  35.896  0.00  0.00     0.018 A 
ATOM      5  S   UNL d   1      59.437  -8.526  35.224  0.00  0.00    -0.061 SA
ATOM      6  N   UNL d   1      58.538  -7.332  35.070  0.00  0.00    -0.141 N 
ATOM      7  C   UNL d   1      61.133  -7.886  36.328  0.00  0.00     0.001 C 
ENDROOT
BRANCH   3   8
ATOM      8  C   UNL d   1      60.553  -9.361  35.597  0.00  0.00     0.285 C 
ATOM      9  N   UNL d   1      60.633  -9.818  34.936  0.00  0.00    -0.208 NA
ATOM     10  O   UNL d   1      60.905  -9.570  36.324  0.00  0.00    -0.265 OA
BRANCH   9  11
ATOM     11  C   UNL d   1      60.279  -9.595  34.229  0.00  0.00     0.085 A 
ATOM     12  C   UNL d   1      59.559  -9.810  34.038  0.00  0.00     0.019 A 
ATOM     13  C   UNL d   1      59.265  -9.564  33.337  0.00  0.00     0.002 A 
ATOM     14  C   UNL d   1      59.647  -9.115  32.816  0.00  0.00     0.000 A 
ATOM     15  C   UNL d   1      60.421  -8.855  32.968  0.00  0.00     0.002 A 
ATOM     16  C   UNL d   1      60.726  -9.119  33.711  0.00  0.00     0.019 A 
ENDBRANCH   9  11
ENDBRANCH   3   8
BRANCH   1  17
ATOM     17  C   UNL d   1      59.892  -6.636  36.003  0.00  0.00     0.302 C 
ATOM     18  O   UNL d   1      59.210  -6.239  36.282  0.00  0.00    -0.259 OA
BRANCH  17  19
ATOM     19  O   UNL d   1      60.603  -6.220  35.982  0.00  0.00    -0.271 OA
BRANCH  19  20
ATOM     20  C   UNL d   1      60.581  -5.416  35.816  0.00  0.00     0.126 C 
ATOM     21  C   UNL d   1      61.133  -4.921  36.176  0.00  0.00     0.029 C 
ENDBRANCH  19  20
ENDBRANCH  17  19
ENDBRANCH   1  17
TORSDOF 5
ENDMDL
MODEL 5
REMARK VINA RESULT:      -0.8      1.363      3.532
REMARK  5 active torsions:
REMARK  status: ('A' for Active; 'I' for Inactive)
REMARK    1  A    between atoms: C_7  and  C_1 
REMARK    2  A    between atoms: C_6  and  C_3 
REMARK       I    between atoms: N_8  and  C_6 
REMARK    3  A    between atoms: O_14  and  C_7 
REMARK    4  A    between atoms: C_13  and  N_8 
REMARK    5  A    between atoms: C_15  and  O_14 
ROOT
ATOM      1  C   UNL d   1      59.462  -0.995  29.314  0.00  0.00     0.090 A 
ATOM      2  C   UNL d   1      59.773  -0.435  29.841  0.00  0.00     0.138 A 
ATOM      3  C   UNL d   1      58.626   0.012  29.406  0.00  0.00     0.089 A 
ATOM      4  C   UNL d   1      58.738  -0.702  29.047  0.00  0.00     0.018 A 
ATOM      5  S   UNL d   1      59.223   0.166  29.864  0.00  0.00    -0.061 SA
ATOM      6  N   UNL d   1      60.509  -0.509  30.247  0.00  0.00    -0.141 N 
ATOM      7  C   UNL d   1      58.236  -1.118  28.490  0.00  0.00     0.001 C 
ENDROOT
BRANCH   3   8
ATOM      8  C   UNL d   1      57.949   0.431  29.243  0.00  0.00     0.285 C 
ATOM      9  N   UNL d   1      57.445   0.610  29.848  0.00  0.00    -0.208 NA
ATOM     10  O   UNL d   1      57.794   0.663  28.456  0.00  0.00    -0.265 OA
BRANCH   9  11
ATOM     11  C   UNL d   1      57.615   0.372  30.617  0.00  0.00     0.085 A 
ATOM     12  C   UNL d   1      58.193   0.681  31.030  0.00  0.00     0.019 A 
ATOM     13  C   UNL d   1      58.312   0.410  31.772  0.00  0.00     0.002 A 
ATOM     14  C   UNL d   1      57.889  -0.149  32.126  0.00  0.00     0.000 A 
ATOM     15  C   UNL d   1      57.256  -0.515  31.730  0.00  0.00     0.002 A 
ATOM     16  C   UNL d   1      57.135  -0.225  30.946  0.00  0.00     0.019 A 
ENDBRANCH   9  11
ENDBRANCH   3   8
BRANCH   1  17
ATOM     17  C   UNL d   1      59.814  -1.697  29.109  0.00  0.00     0.302 C 
ATOM     18  O   UNL d   1      60.482  -1.706  28.605  0.00  0.00    -0.259 OA
BRANCH  17  19
ATOM     19  O   UNL d   1      59.527  -2.418  29.388  0.00  0.00    -0.271 OA
BRANCH  19  20
ATOM     20  C   UNL d   1      59.801  -3.109  29.040  0.00  0.00     0.126 C 
ATOM     21  C   UNL d   1      60.347  -3.571  29.449  0.00  0.00     0.029 C 
ENDBRANCH  19  20
ENDBRANCH  17  19
ENDBRANCH   1  17
TORSDOF 5
ENDMDL
MODEL 6
REMARK VINA RESULT:       0.4      1.584      3.318
REMARK  5 active torsions:
REMARK  status: ('A' for Active; 'I' for Inactive)
REMARK    1  A    between atoms: C_7  and  C_1 
REMARK    2  A    between atoms: C_6  and  C_3 
REMARK       I    between atoms: N_8  and  C_6 
REMARK    3  A    between atoms: O_14  and  C_7 
REMARK    4  A    between atoms: C_13  and  N_8 
REMARK    5  A    between atoms: C_15  and  O_14 
ROOT
ATOM      1  C   UNL d   1      59.639  -1.728  28.990  0.00  0.00     0.090 A 
ATOM      2  C   UNL d   1      60.283  -1.207  28.944  0.00  0.00     0.138 A 
ATOM      3  C   UNL d   1      59.190  -0.496  28.992  0.00  0.00     0.089 A 
ATOM      4  C   UNL d   1      58.955  -1.268  29.020  0.00  0.00     0.018 A 
ATOM      5  S   UNL d   1      59.955  -0.461  28.948  0.00  0.00    -0.061 SA
ATOM      6  N   UNL d   1      61.093  -1.441  28.902  0.00  0.00    -0.141 N 
ATOM      7  C   UNL d   1      58.165  -1.597  29.072  0.00  0.00     0.001 C 
ENDROOT
BRANCH   3   8
ATOM      8  C   UNL d   1      58.622   0.087  29.014  0.00  0.00     0.285 C 
ATOM      9  N   UNL d   1      58.681   0.668  29.571  0.00  0.00    -0.208 NA
ATOM     10  O   UNL d   1      57.998   0.067  28.460  0.00  0.00    -0.265 OA
BRANCH   9  11
ATOM     11  C   UNL d   1      59.304   0.670  30.108  0.00  0.00     0.085 A 
ATOM     12  C   UNL d   1      60.046   0.665  29.885  0.00  0.00     0.019 A 
ATOM     13  C   UNL d   1      60.609   0.668  30.451  0.00  0.00     0.002 A 
ATOM     14  C   UNL d   1      60.477   0.676  31.226  0.00  0.00     0.000 A 
ATOM     15  C   UNL d   1      59.700   0.682  31.522  0.00  0.00     0.002 A 
ATOM     16  C   UNL d   1      59.109   0.679  30.918  0.00  0.00     0.019 A 
ENDBRANCH   9  11
ENDBRANCH   3   8
BRANCH   1  17
ATOM     17  C   UNL d   1      59.688  -2.538  29.003  0.00  0.00     0.302 C 
ATOM     18  O   UNL d   1      59.082  -3.005  28.664  0.00  0.00    -0.259 OA
BRANCH  17  19
ATOM     19  O   UNL d   1      60.330  -2.923  29.347  0.00  0.00    -0.271 OA
BRANCH  19  20
ATOM     20  C   UNL d   1      60.382  -3.739  29.273  0.00  0.00     0.126 C 
ATOM     21  C   UNL d   1      61.128  -4.090  29.250  0.00  0.00     0.029 C 
ENDBRANCH  19  20
ENDBRANCH  17  19
ENDBRANCH   1  17
TORSDOF 5
ENDMDL
MODEL 7
REMARK VINA RESULT:       0.5      3.052      5.326
REMARK  5 active torsions:
REMARK  status: ('A' for Active; 'I' for Inactive)
REMARK    1  A    between atoms: C_7  and  C_1 
REMARK    2  A    between atoms: C_6  and  C_3 
REMARK       I    between atoms: N_8  and  C_6 
REMARK    3  A    between atoms: O_14  and  C_7 
REMARK    4  A    between atoms: C_13  and  N_8 
REMARK    5  A    between atoms: C_15  and  O_14 
ROOT
ATOM      1  C   UNL d   1      57.113  -0.387  31.860  0.00  0.00     0.090 A 
ATOM      2  C   UNL d   1      56.477  -0.772  32.228  0.00  0.00     0.138 A 
ATOM      3  C   UNL d   1      57.059  -0.014  33.117  0.00  0.00     0.089 A 
ATOM      4  C   UNL d   1      57.472   0.088  32.431  0.00  0.00     0.018 A 
ATOM      5  S   UNL d   1      56.486  -0.510  33.000  0.00  0.00    -0.061 SA
ATOM      6  N   UNL d   1      55.954  -1.315  31.848  0.00  0.00    -0.141 N 
ATOM      7  C   UNL d   1      58.156   0.581  32.273  0.00  0.00     0.001 C 
ENDROOT
BRANCH   3   8
ATOM      8  C   UNL d   1      57.295   0.393  33.780  0.00  0.00     0.285 C 
ATOM      9  N   UNL d   1      56.733   0.656  34.297  0.00  0.00    -0.208 NA
ATOM     10  O   UNL d   1      58.109   0.527  33.908  0.00  0.00    -0.265 OA
BRANCH   9  11
ATOM     11  C   UNL d   1      55.936   0.514  34.154  0.00  0.00     0.085 A 
ATOM     12  C   UNL d   1      55.598   0.682  33.477  0.00  0.00     0.019 A 
ATOM     13  C   UNL d   1      54.820   0.522  33.394  0.00  0.00     0.002 A 
ATOM     14  C   UNL d   1      54.359   0.205  33.947  0.00  0.00     0.000 A 
ATOM     15  C   UNL d   1      54.668   0.006  34.692  0.00  0.00     0.002 A 
ATOM     16  C   UNL d   1      55.491   0.177  34.773  0.00  0.00     0.019 A 
ENDBRANCH   9  11
ENDBRANCH   3   8
BRANCH   1  17
ATOM     17  C   UNL d   1      57.329  -0.471  31.083  0.00  0.00     0.302 C 
ATOM     18  O   UNL d   1      57.496  -1.228  30.767  0.00  0.00    -0.259 OA
BRANCH  17  19
ATOM     19  O   UNL d   1      57.392   0.181  30.583  0.00  0.00    -0.271 OA
BRANCH  19  20
ATOM     20  C   UNL d   1      57.818   0.100  29.886  0.00  0.00     0.126 C 
ATOM     21  C   UNL d   1      57.708   0.654  29.285  0.00  0.00     0.029 C 
ENDBRANCH  19  20
ENDBRANCH  17  19
ENDBRANCH   1  17
TORSDOF 5
ENDMDL
MODEL 8
REMARK VINA RESULT:       0.6      1.918      2.686
REMARK  5 active torsions:
REMARK  status: ('A' for Active; 'I' for Inactive)
REMARK    1  A    between atoms: C_7  and  C_1 
REMARK    2  A    between atoms: C_6  and  C_3 
REMARK       I    between atoms: N_8  and  C_6 
REMARK    3  A    between atoms: O_14  and  C_7 
REMARK    4  A    between atoms: C_13  and  N_8 
REMARK    5  A    between atoms: C_15  and  O_14 
ROOT
ATOM      1  C   UNL d   1      57.249  -0.384  31.860  0.00  0.00     0.090 A 
ATOM      2  C   UNL d   1      57.444  -0.821  31.182  0.00  0.00     0.138 A 
ATOM      3  C   UNL d   1      58.428  -0.001  31.431  0.00  0.00     0.089 A 
ATOM      4  C   UNL d   1      57.877   0.130  32.006  0.00  0.00     0.018 A 
ATOM      5  S   UNL d   1      58.177  -0.549  30.956  0.00  0.00    -0.061 SA
ATOM      6  N   UNL d   1      56.956  -1.414  30.832  0.00  0.00    -0.141 N 
ATOM      7  C   UNL d   1      57.894   0.682  32.663  0.00  0.00     0.001 C 
ENDROOT
BRANCH   3   8
ATOM      8  C   UNL d   1      59.115   0.435  31.439  0.00  0.00     0.285 C 
ATOM      9  N   UNL d   1      59.469   0.617  30.737  0.00  0.00    -0.208 NA
ATOM     10  O   UNL d   1      59.432   0.682  32.171  0.00  0.00    -0.265 OA
BRANCH   9  11
ATOM     11  C   UNL d   1      59.142   0.366  30.026  0.00  0.00     0.085 A 
ATOM     12  C   UNL d   1      58.500   0.682  29.728  0.00  0.00     0.019 A 
ATOM     13  C   UNL d   1      58.227   0.397  29.034  0.00  0.00     0.002 A 
ATOM     14  C   UNL d   1      58.555  -0.185  28.619  0.00  0.00     0.000 A 
ATOM     15  C   UNL d   1      59.245  -0.560  28.891  0.00  0.00     0.002 A 
ATOM     16  C   UNL d   1      59.529  -0.254  29.626  0.00  0.00     0.019 A 
ENDBRANCH   9  11
ENDBRANCH   3   8
BRANCH   1  17
ATOM     17  C   UNL d   1      56.564  -0.458  32.288  0.00  0.00     0.302 C 
ATOM     18  O   UNL d   1      55.981   0.142  32.266  0.00  0.00    -0.259 OA
BRANCH  17  19
ATOM     19  O   UNL d   1      56.422  -1.121  32.757  0.00  0.00    -0.271 OA
BRANCH  19  20
ATOM     20  C   UNL d   1      55.825  -1.082  33.319  0.00  0.00     0.126 C 
ATOM     21  C   UNL d   1      55.704  -1.729  33.816  0.00  0.00     0.029 C 
ENDBRANCH  19  20
ENDBRANCH  17  19
ENDBRANCH   1  17
TORSDOF 5
ENDMDL
