MODEL 1
REMARK VINA RESULT:      -7.7      0.000      0.000
REMARK  5 active torsions:
REMARK  status: ('A' for Active; 'I' for Inactive)
REMARK    1  A    between atoms: C_14  and  N_4 
REMARK    2  A    between atoms: C_15  and  C_9 
REMARK    3  A    between atoms: O_18  and  C_12 
REMARK    4  A    between atoms: O_19  and  C_13 
REMARK    5  A    between atoms: C_16  and  C_14 
ROOT
ATOM      1  C   UNL d   1      52.696  34.074  53.942  0.00  0.00     0.056 A 
ATOM      2  C   UNL d   1      52.057  34.603  53.899  0.00  0.00     0.107 A 
ATOM      3  C   UNL d   1      51.420  34.443  53.404  0.00  0.00     0.038 A 
ATOM      4  N   UNL d   1      52.043  33.227  52.989  0.00  0.00    -0.304 N 
ATOM      5  N   UNL d   1      52.220  35.229  54.407  0.00  0.00    -0.148 NA
ATOM      6  C   UNL d   1      52.689  33.386  53.487  0.00  0.00     0.083 A 
ATOM      7  N   UNL d   1      52.951  35.088  54.762  0.00  0.00    -0.148 NA
ATOM      8  C   UNL d   1      51.413  33.754  52.949  0.00  0.00     0.068 A 
ATOM      9  C   UNL d   1      53.250  34.378  54.479  0.00  0.00     0.106 A 
ATOM     10  C   UNL d   1      50.774  33.593  52.454  0.00  0.00     0.044 A 
ATOM     11  C   UNL d   1      50.788  34.970  53.363  0.00  0.00     0.029 A 
ATOM     12  C   UNL d   1      50.144  34.121  52.414  0.00  0.00     0.118 A 
ATOM     13  C   UNL d   1      50.151  34.809  52.869  0.00  0.00     0.116 A 
ENDROOT
BRANCH   4  14
ATOM     14  C   UNL d   1      52.036  32.538  52.534  0.00  0.00     0.080 C 
BRANCH  14  15
ATOM     15  C   UNL d   1      52.389  31.852  52.821  0.00  0.00     0.018 A 
ATOM     16  C   UNL d   1      53.168  31.659  52.598  0.00  0.00     0.004 A 
ATOM     17  C   UNL d   1      53.522  30.973  52.883  0.00  0.00     0.030 A 
ATOM     18  C   UNL d   1      53.103  30.467  53.398  0.00  0.00     0.140 A 
ATOM     19  C   UNL d   1      52.324  30.660  53.621  0.00  0.00     0.030 A 
ATOM     20  F   UNL d   1      53.460  29.770  53.690  0.00  0.00    -0.204 F 
ATOM     21  C   UNL d   1      51.971  31.349  53.333  0.00  0.00     0.004 A 
ENDBRANCH  14  15
ENDBRANCH   4  14
BRANCH   9  22
ATOM     22  C   UNL d   1      53.980  34.101  54.744  0.00  0.00     0.019 A 
ATOM     23  C   UNL d   1      54.024  33.648  55.431  0.00  0.00     0.002 A 
ATOM     24  C   UNL d   1      54.759  33.372  55.693  0.00  0.00     0.000 A 
ATOM     25  C   UNL d   1      55.450  33.549  55.269  0.00  0.00     0.000 A 
ATOM     26  C   UNL d   1      55.398  34.005  54.580  0.00  0.00     0.000 A 
ATOM     27  C   UNL d   1      54.667  34.279  54.319  0.00  0.00     0.002 A 
ENDBRANCH   9  22
BRANCH  12  28
ATOM     28  O   UNL d   1      49.495  33.952  51.908  0.00  0.00    -0.326 OA
ATOM     29  C   UNL d   1      49.568  34.073  51.093  0.00  0.00     0.181 C 
ENDBRANCH  12  28
BRANCH  13  30
ATOM     30  O   UNL d   1      49.509  35.339  52.824  0.00  0.00    -0.326 OA
ATOM     31  C   UNL d   1      49.100  35.550  53.512  0.00  0.00     0.181 C 
ENDBRANCH  13  30
TORSDOF 5
ENDMDL
MODEL 2
REMARK VINA RESULT:      -7.4      2.267      3.878
REMARK  5 active torsions:
REMARK  status: ('A' for Active; 'I' for Inactive)
REMARK    1  A    between atoms: C_14  and  N_4 
REMARK    2  A    between atoms: C_15  and  C_9 
REMARK    3  A    between atoms: O_18  and  C_12 
REMARK    4  A    between atoms: O_19  and  C_13 
REMARK    5  A    between atoms: C_16  and  C_14 
ROOT
ATOM      1  C   UNL d   1      53.313  33.069  54.162  0.00  0.00     0.056 A 
ATOM      2  C   UNL d   1      53.643  32.337  54.373  0.00  0.00     0.107 A 
ATOM      3  C   UNL d   1      53.385  31.646  54.009  0.00  0.00     0.038 A 
ATOM      4  N   UNL d   1      52.465  32.402  53.220  0.00  0.00    -0.304 N 
ATOM      5  N   UNL d   1      54.209  32.480  54.954  0.00  0.00    -0.148 NA
ATOM      6  C   UNL d   1      52.724  33.102  53.585  0.00  0.00     0.083 A 
ATOM      7  N   UNL d   1      54.228  33.292  55.100  0.00  0.00    -0.148 NA
ATOM      8  C   UNL d   1      52.796  31.679  53.433  0.00  0.00     0.068 A 
ATOM      9  C   UNL d   1      53.678  33.660  54.615  0.00  0.00     0.106 A 
ATOM     10  C   UNL d   1      52.536  30.987  53.068  0.00  0.00     0.044 A 
ATOM     11  C   UNL d   1      53.714  30.922  54.222  0.00  0.00     0.029 A 
ATOM     12  C   UNL d   1      52.867  30.263  53.281  0.00  0.00     0.118 A 
ATOM     13  C   UNL d   1      53.456  30.231  53.858  0.00  0.00     0.116 A 
ENDROOT
BRANCH   4  14
ATOM     14  C   UNL d   1      51.876  32.434  52.643  0.00  0.00     0.080 C 
BRANCH  14  15
ATOM     15  C   UNL d   1      51.346  33.064  52.631  0.00  0.00     0.018 A 
ATOM     16  C   UNL d   1      51.437  33.675  52.073  0.00  0.00     0.004 A 
ATOM     17  C   UNL d   1      50.908  34.305  52.060  0.00  0.00     0.030 A 
ATOM     18  C   UNL d   1      50.276  34.334  52.605  0.00  0.00     0.140 A 
ATOM     19  C   UNL d   1      50.185  33.723  53.163  0.00  0.00     0.030 A 
ATOM     20  F   UNL d   1      49.737  34.973  52.594  0.00  0.00    -0.204 F 
ATOM     21  C   UNL d   1      50.718  33.092  53.174  0.00  0.00     0.004 A 
ENDBRANCH  14  15
ENDBRANCH   4  14
BRANCH   9  22
ATOM     22  C   UNL d   1      53.581  34.479  54.647  0.00  0.00     0.019 A 
ATOM     23  C   UNL d   1      53.946  34.959  54.085  0.00  0.00     0.002 A 
ATOM     24  C   UNL d   1      53.846  35.780  54.121  0.00  0.00     0.000 A 
ATOM     25  C   UNL d   1      53.381  36.121  54.718  0.00  0.00     0.000 A 
ATOM     26  C   UNL d   1      53.018  35.632  55.279  0.00  0.00     0.000 A 
ATOM     27  C   UNL d   1      53.117  34.816  55.244  0.00  0.00     0.002 A 
ENDBRANCH   9  22
BRANCH  12  28
ATOM     28  O   UNL d   1      52.599  29.560  52.907  0.00  0.00    -0.326 OA
ATOM     29  C   UNL d   1      52.660  29.484  52.086  0.00  0.00     0.181 C 
ENDBRANCH  12  28
BRANCH  13  30
ATOM     30  O   UNL d   1      53.786  29.495  54.069  0.00  0.00    -0.326 OA
ATOM     31  C   UNL d   1      53.586  29.146  54.792  0.00  0.00     0.181 C 
ENDBRANCH  13  30
TORSDOF 5
ENDMDL
MODEL 3
REMARK VINA RESULT:      -5.8      2.443      4.537
REMARK  5 active torsions:
REMARK  status: ('A' for Active; 'I' for Inactive)
REMARK    1  A    between atoms: C_14  and  N_4 
REMARK    2  A    between atoms: C_15  and  C_9 
REMARK    3  A    between atoms: O_18  and  C_12 
REMARK    4  A    between atoms: O_19  and  C_13 
REMARK    5  A    between atoms: C_16  and  C_14 
ROOT
ATOM      1  C   UNL d   1      52.552  32.355  53.304  0.00  0.00     0.056 A 
ATOM      2  C   UNL d   1      52.350  31.598  53.028  0.00  0.00     0.107 A 
ATOM      3  C   UNL d   1      52.709  30.931  53.350  0.00  0.00     0.038 A 
ATOM      4  N   UNL d   1      53.475  31.761  54.224  0.00  0.00    -0.304 N 
ATOM      5  N   UNL d   1      51.782  31.692  52.440  0.00  0.00    -0.148 NA
ATOM      6  C   UNL d   1      53.115  32.436  53.901  0.00  0.00     0.083 A 
ATOM      7  N   UNL d   1      51.635  32.500  52.353  0.00  0.00    -0.148 NA
ATOM      8  C   UNL d   1      53.272  31.013  53.947  0.00  0.00     0.068 A 
ATOM      9  C   UNL d   1      52.106  32.913  52.882  0.00  0.00     0.106 A 
ATOM     10  C   UNL d   1      53.631  30.345  54.270  0.00  0.00     0.044 A 
ATOM     11  C   UNL d   1      52.506  30.182  53.074  0.00  0.00     0.029 A 
ATOM     12  C   UNL d   1      53.428  29.597  53.993  0.00  0.00     0.118 A 
ATOM     13  C   UNL d   1      52.865  29.516  53.396  0.00  0.00     0.116 A 
ENDROOT
BRANCH   4  14
ATOM     14  C   UNL d   1      54.038  31.842  54.821  0.00  0.00     0.080 C 
BRANCH  14  15
ATOM     15  C   UNL d   1      54.432  32.558  54.921  0.00  0.00     0.018 A 
ATOM     16  C   UNL d   1      54.250  33.048  55.570  0.00  0.00     0.004 A 
ATOM     17  C   UNL d   1      54.643  33.764  55.671  0.00  0.00     0.030 A 
ATOM     18  C   UNL d   1      55.226  34.003  55.124  0.00  0.00     0.140 A 
ATOM     19  C   UNL d   1      55.409  33.514  54.476  0.00  0.00     0.030 A 
ATOM     20  F   UNL d   1      55.628  34.730  55.224  0.00  0.00    -0.204 F 
ATOM     21  C   UNL d   1      55.013  32.796  54.377  0.00  0.00     0.004 A 
ENDBRANCH  14  15
ENDBRANCH   4  14
BRANCH   9  22
ATOM     22  C   UNL d   1      52.070  33.736  52.913  0.00  0.00     0.019 A 
ATOM     23  C   UNL d   1      52.573  34.188  52.441  0.00  0.00     0.002 A 
ATOM     24  C   UNL d   1      52.533  35.015  52.475  0.00  0.00     0.000 A 
ATOM     25  C   UNL d   1      51.991  35.389  52.981  0.00  0.00     0.000 A 
ATOM     26  C   UNL d   1      51.490  34.929  53.451  0.00  0.00     0.000 A 
ATOM     27  C   UNL d   1      51.529  34.107  53.418  0.00  0.00     0.002 A 
ENDBRANCH   9  22
BRANCH  12  28
ATOM     28  O   UNL d   1      53.797  28.919  54.325  0.00  0.00    -0.326 OA
ATOM     29  C   UNL d   1      53.624  28.696  55.102  0.00  0.00     0.181 C 
ENDBRANCH  12  28
BRANCH  13  30
ATOM     30  O   UNL d   1      52.663  28.755  53.121  0.00  0.00    -0.326 OA
ATOM     31  C   UNL d   1      52.177  28.673  52.455  0.00  0.00     0.181 C 
ENDBRANCH  13  30
TORSDOF 5
ENDMDL
MODEL 4
REMARK VINA RESULT:      -5.2      2.138      4.257
REMARK  5 active torsions:
REMARK  status: ('A' for Active; 'I' for Inactive)
REMARK    1  A    between atoms: C_14  and  N_4 
REMARK    2  A    between atoms: C_15  and  C_9 
REMARK    3  A    between atoms: O_18  and  C_12 
REMARK    4  A    between atoms: O_19  and  C_13 
REMARK    5  A    between atoms: C_16  and  C_14 
ROOT
ATOM      1  C   UNL d   1      53.302  32.067  53.837  0.00  0.00     0.056 A 
ATOM      2  C   UNL d   1      53.962  32.449  54.165  0.00  0.00     0.107 A 
ATOM      3  C   UNL d   1      53.902  33.228  54.425  0.00  0.00     0.038 A 
ATOM      4  N   UNL d   1      52.529  33.256  54.036  0.00  0.00    -0.304 N 
ATOM      5  N   UNL d   1      54.587  31.914  54.156  0.00  0.00    -0.148 NA
ATOM      6  C   UNL d   1      52.585  32.470  53.773  0.00  0.00     0.083 A 
ATOM      7  N   UNL d   1      54.317  31.208  53.826  0.00  0.00    -0.148 NA
ATOM      8  C   UNL d   1      53.186  33.631  54.360  0.00  0.00     0.068 A 
ATOM      9  C   UNL d   1      53.525  31.296  53.628  0.00  0.00     0.106 A 
ATOM     10  C   UNL d   1      53.126  34.410  54.620  0.00  0.00     0.044 A 
ATOM     11  C   UNL d   1      54.559  33.604  54.750  0.00  0.00     0.029 A 
ATOM     12  C   UNL d   1      53.783  34.785  54.945  0.00  0.00     0.118 A 
ATOM     13  C   UNL d   1      54.499  34.382  55.009  0.00  0.00     0.116 A 
ENDROOT
BRANCH   4  14
ATOM     14  C   UNL d   1      51.812  33.659  53.971  0.00  0.00     0.080 C 
BRANCH  14  15
ATOM     15  C   UNL d   1      51.451  33.743  53.236  0.00  0.00     0.018 A 
ATOM     16  C   UNL d   1      50.705  33.399  53.096  0.00  0.00     0.004 A 
ATOM     17  C   UNL d   1      50.344  33.482  52.361  0.00  0.00     0.030 A 
ATOM     18  C   UNL d   1      50.721  33.910  51.753  0.00  0.00     0.140 A 
ATOM     19  C   UNL d   1      51.467  34.254  51.893  0.00  0.00     0.030 A 
ATOM     20  F   UNL d   1      50.356  33.996  51.005  0.00  0.00    -0.204 F 
ATOM     21  C   UNL d   1      51.828  34.170  52.631  0.00  0.00     0.004 A 
ENDBRANCH  14  15
ENDBRANCH   4  14
BRANCH   9  22
ATOM     22  C   UNL d   1      53.113  30.669  53.285  0.00  0.00     0.019 A 
ATOM     23  C   UNL d   1      53.101  30.584  52.465  0.00  0.00     0.002 A 
ATOM     24  C   UNL d   1      52.686  29.953  52.125  0.00  0.00     0.000 A 
ATOM     25  C   UNL d   1      52.282  29.409  52.604  0.00  0.00     0.000 A 
ATOM     26  C   UNL d   1      52.298  29.501  53.427  0.00  0.00     0.000 A 
ATOM     27  C   UNL d   1      52.711  30.128  53.765  0.00  0.00     0.002 A 
ENDBRANCH   9  22
BRANCH  12  28
ATOM     28  O   UNL d   1      53.717  35.581  55.208  0.00  0.00    -0.326 OA
ATOM     29  C   UNL d   1      53.247  36.115  54.787  0.00  0.00     0.181 C 
ENDBRANCH  12  28
BRANCH  13  30
ATOM     30  O   UNL d   1      55.161  34.768  55.339  0.00  0.00    -0.326 OA
ATOM     31  C   UNL d   1      55.888  34.374  55.382  0.00  0.00     0.181 C 
ENDBRANCH  13  30
TORSDOF 5
ENDMDL
MODEL 5
REMARK VINA RESULT:      -5.2      1.224      3.207
REMARK  5 active torsions:
REMARK  status: ('A' for Active; 'I' for Inactive)
REMARK    1  A    between atoms: C_14  and  N_4 
REMARK    2  A    between atoms: C_15  and  C_9 
REMARK    3  A    between atoms: O_18  and  C_12 
REMARK    4  A    between atoms: O_19  and  C_13 
REMARK    5  A    between atoms: C_16  and  C_14 
ROOT
ATOM      1  C   UNL d   1      52.431  32.101  53.268  0.00  0.00     0.056 A 
ATOM      2  C   UNL d   1      51.824  32.387  52.778  0.00  0.00     0.107 A 
ATOM      3  C   UNL d   1      51.517  33.141  52.896  0.00  0.00     0.038 A 
ATOM      4  N   UNL d   1      52.414  33.338  53.990  0.00  0.00    -0.304 N 
ATOM      5  N   UNL d   1      51.647  31.796  52.233  0.00  0.00    -0.148 NA
ATOM      6  C   UNL d   1      52.726  32.577  53.873  0.00  0.00     0.083 A 
ATOM      7  N   UNL d   1      52.141  31.152  52.384  0.00  0.00    -0.148 NA
ATOM      8  C   UNL d   1      51.812  33.617  53.502  0.00  0.00     0.068 A 
ATOM      9  C   UNL d   1      52.626  31.334  53.021  0.00  0.00     0.106 A 
ATOM     10  C   UNL d   1      51.506  34.372  53.620  0.00  0.00     0.044 A 
ATOM     11  C   UNL d   1      50.915  33.421  52.409  0.00  0.00     0.029 A 
ATOM     12  C   UNL d   1      50.904  34.651  53.133  0.00  0.00     0.118 A 
ATOM     13  C   UNL d   1      50.609  34.175  52.527  0.00  0.00     0.116 A 
ENDROOT
BRANCH   4  14
ATOM     14  C   UNL d   1      52.709  33.814  54.596  0.00  0.00     0.080 C 
BRANCH  14  15
ATOM     15  C   UNL d   1      53.510  33.790  54.786  0.00  0.00     0.018 A 
ATOM     16  C   UNL d   1      53.767  33.364  55.454  0.00  0.00     0.004 A 
ATOM     17  C   UNL d   1      54.567  33.339  55.645  0.00  0.00     0.030 A 
ATOM     18  C   UNL d   1      55.125  33.739  55.171  0.00  0.00     0.140 A 
ATOM     19  C   UNL d   1      54.868  34.165  54.502  0.00  0.00     0.030 A 
ATOM     20  F   UNL d   1      55.939  33.715  55.362  0.00  0.00    -0.204 F 
ATOM     21  C   UNL d   1      54.064  34.189  54.313  0.00  0.00     0.004 A 
ENDBRANCH  14  15
ENDBRANCH   4  14
BRANCH   9  22
ATOM     22  C   UNL d   1      53.177  30.784  53.291  0.00  0.00     0.019 A 
ATOM     23  C   UNL d   1      53.952  30.808  53.014  0.00  0.00     0.002 A 
ATOM     24  C   UNL d   1      54.503  30.253  53.288  0.00  0.00     0.000 A 
ATOM     25  C   UNL d   1      54.278  29.676  53.840  0.00  0.00     0.000 A 
ATOM     26  C   UNL d   1      53.498  29.658  54.115  0.00  0.00     0.000 A 
ATOM     27  C   UNL d   1      52.950  30.209  53.842  0.00  0.00     0.002 A 
ENDBRANCH   9  22
BRANCH  12  28
ATOM     28  O   UNL d   1      50.594  35.422  53.257  0.00  0.00    -0.326 OA
ATOM     29  C   UNL d   1      50.128  35.574  53.922  0.00  0.00     0.181 C 
ENDBRANCH  12  28
BRANCH  13  30
ATOM     30  O   UNL d   1      49.999  34.463  52.036  0.00  0.00    -0.326 OA
ATOM     31  C   UNL d   1      49.840  34.090  51.315  0.00  0.00     0.181 C 
ENDBRANCH  13  30
TORSDOF 5
ENDMDL
