MODEL 1
REMARK VINA RESULT:      36.7      0.000      0.000
REMARK  3 active torsions:
REMARK  status: ('A' for Active; 'I' for Inactive)
REMARK    1  A    between atoms: C_5  and  C_1 
REMARK    2  A    between atoms: C_8  and  N_2 
REMARK    3  A    between atoms: C_10  and  C_8 
ROOT
ATOM      1  C   UNL d   1      58.579  49.610  50.295  0.00  0.00     0.166 A 
ATOM      2  N   UNL d   1      60.173  49.625  50.724  0.00  0.00    -0.302 N 
ATOM      3  C   UNL d   1      59.162  49.698  49.718  0.00  0.00     0.058 A 
ATOM      4  C   UNL d   1      58.793  49.529  51.087  0.00  0.00     0.058 A 
ATOM      5  C   UNL d   1      59.590  49.537  51.302  0.00  0.00     0.083 A 
ATOM      6  C   UNL d   1      59.959  49.706  49.933  0.00  0.00     0.083 A 
ATOM      7  O   UNL d   1      57.993  49.513  50.944  0.00  0.00    -0.290 OA
ENDROOT
BRANCH   1   8
ATOM      8  C   UNL d   1      57.783  49.602  50.081  0.00  0.00     0.036 A 
ATOM      9  C   UNL d   1      57.569  49.507  49.276  0.00  0.00     0.003 A 
ATOM     10  C   UNL d   1      56.773  49.501  49.074  0.00  0.00     0.000 A 
ATOM     11  C   UNL d   1      56.186  49.588  49.655  0.00  0.00     0.000 A 
ATOM     12  C   UNL d   1      56.393  49.680  50.439  0.00  0.00     0.000 A 
ATOM     13  C   UNL d   1      57.196  49.688  50.661  0.00  0.00     0.003 A 
ENDBRANCH   1   8
BRANCH   2  14
ATOM     14  C   UNL d   1      60.969  49.633  50.940  0.00  0.00     0.080 C 
BRANCH  14  15
ATOM     15  C   UNL d   1      61.180  49.585  51.737  0.00  0.00     0.018 A 
ATOM     16  C   UNL d   1      61.962  49.434  51.947  0.00  0.00     0.002 A 
ATOM     17  C   UNL d   1      62.173  49.386  52.743  0.00  0.00     0.000 A 
ATOM     18  C   UNL d   1      61.607  49.489  53.330  0.00  0.00     0.000 A 
ATOM     19  C   UNL d   1      60.823  49.641  53.119  0.00  0.00     0.000 A 
ATOM     20  C   UNL d   1      60.608  49.689  52.322  0.00  0.00     0.002 A 
ENDBRANCH  14  15
ENDBRANCH   2  14
TORSDOF 3
ENDMDL
