MODEL 1
REMARK VINA RESULT:      -8.3      0.000      0.000
REMARK  8 active torsions:
REMARK  status: ('A' for Active; 'I' for Inactive)
REMARK    1  A    between atoms: N_6  and  C_1 
REMARK    2  A    between atoms: N_8  and  C_2 
REMARK    3  A    between atoms: N_15  and  C_7 
REMARK    4  A    between atoms: C_12  and  N_8 
REMARK    5  A    between atoms: N_10  and  C_19 
REMARK    6  A    between atoms: C_24  and  N_15 
REMARK    7  A    between atoms: C_19  and  C_20 
REMARK    8  A    between atoms: C_20  and  C_24 
ROOT
ATOM      1  C   UNL d   1      53.237  31.125  53.446  0.00  0.00     0.201 A 
ATOM      2  C   UNL d   1      53.453  31.842  53.801  0.00  0.00     0.206 A 
ATOM      3  N   UNL d   1      53.085  32.527  53.540  0.00  0.00    -0.038 NA
ATOM      4  N   UNL d   1      52.320  31.800  52.608  0.00  0.00    -0.036 NA
ATOM      5  C   UNL d   1      52.671  31.104  52.851  0.00  0.00     0.227 A 
ATOM      6  C   UNL d   1      52.520  32.506  52.945  0.00  0.00     0.753 A 
ATOM      7  N   UNL d   1      52.470  30.382  52.510  0.00  0.00    -0.125 N 
ENDROOT
BRANCH   6   8
ATOM      8  N   UNL d   1      52.159  33.201  52.693  0.00  0.00    -0.058 NA
BRANCH   8   9
ATOM      9  C   UNL d   1      51.429  33.421  53.005  0.00  0.00     0.120 C 
BRANCH   9  10
ATOM     10  C   UNL d   1      50.941  33.933  52.585  0.00  0.00     0.040 C 
BRANCH  10  11
ATOM     11  C   UNL d   1      50.375  34.384  52.981  0.00  0.00     0.082 C 
BRANCH  11  12
ATOM     12  N   UNL d   1      49.712  34.668  52.578  0.00  0.00    -0.299 N 
ATOM     13  C   UNL d   1      49.188  35.173  52.967  0.00  0.00     0.107 A 
ATOM     14  C   UNL d   1      48.526  35.458  52.570  0.00  0.00     0.142 A 
ATOM     15  O   UNL d   1      48.388  35.237  51.787  0.00  0.00    -0.300 OA
ATOM     16  C   UNL d   1      48.912  34.732  51.402  0.00  0.00     0.142 A 
ATOM     17  C   UNL d   1      49.582  34.443  51.800  0.00  0.00     0.107 A 
ENDBRANCH  11  12
ENDBRANCH  10  11
ENDBRANCH   9  10
ENDBRANCH   8   9
ENDBRANCH   6   8
BRANCH   2  18
ATOM     18  N   UNL d   1      54.021  31.863  54.399  0.00  0.00    -0.225 NA
BRANCH  18  19
ATOM     19  C   UNL d   1      54.311  32.586  54.674  0.00  0.00     0.085 A 
ATOM     20  C   UNL d   1      54.982  32.929  54.319  0.00  0.00     0.049 A 
ATOM     21  C   UNL d   1      55.268  33.643  54.590  0.00  0.00     0.142 A 
ATOM     22  F   UNL d   1      55.933  33.982  54.239  0.00  0.00    -0.204 F 
ATOM     23  C   UNL d   1      54.892  34.030  55.219  0.00  0.00     0.030 A 
ATOM     24  C   UNL d   1      54.228  33.691  55.570  0.00  0.00     0.004 A 
ATOM     25  C   UNL d   1      53.938  32.969  55.296  0.00  0.00     0.019 A 
ENDBRANCH  18  19
ENDBRANCH   2  18
BRANCH   1  26
ATOM     26  N   UNL d   1      53.607  30.413  53.705  0.00  0.00    -0.107 N 
ATOM     27  O   UNL d   1      54.299  30.147  53.317  0.00  0.00    -0.531 OA
ATOM     28  O   UNL d   1      53.285  29.978  54.344  0.00  0.00    -0.531 OA
ENDBRANCH   1  26
TORSDOF 8
ENDMDL
MODEL 2
REMARK VINA RESULT:      -7.4      2.404      5.143
REMARK  8 active torsions:
REMARK  status: ('A' for Active; 'I' for Inactive)
REMARK    1  A    between atoms: N_6  and  C_1 
REMARK    2  A    between atoms: N_8  and  C_2 
REMARK    3  A    between atoms: N_15  and  C_7 
REMARK    4  A    between atoms: C_12  and  N_8 
REMARK    5  A    between atoms: N_10  and  C_19 
REMARK    6  A    between atoms: C_24  and  N_15 
REMARK    7  A    between atoms: C_19  and  C_20 
REMARK    8  A    between atoms: C_20  and  C_24 
ROOT
ATOM      1  C   UNL d   1      53.536  34.380  54.362  0.00  0.00     0.201 A 
ATOM      2  C   UNL d   1      53.012  34.201  53.744  0.00  0.00     0.206 A 
ATOM      3  N   UNL d   1      53.083  33.469  53.381  0.00  0.00    -0.038 NA
ATOM      4  N   UNL d   1      54.156  33.118  54.222  0.00  0.00    -0.036 NA
ATOM      5  C   UNL d   1      54.106  33.840  54.600  0.00  0.00     0.227 A 
ATOM      6  C   UNL d   1      53.653  32.929  53.620  0.00  0.00     0.753 A 
ATOM      7  N   UNL d   1      54.616  34.037  55.215  0.00  0.00    -0.125 N 
ENDROOT
BRANCH   6   8
ATOM      8  N   UNL d   1      53.712  32.198  53.245  0.00  0.00    -0.058 NA
BRANCH   8   9
ATOM      9  C   UNL d   1      53.229  31.575  53.484  0.00  0.00     0.120 C 
BRANCH   9  10
ATOM     10  C   UNL d   1      53.530  30.810  53.511  0.00  0.00     0.040 C 
BRANCH  10  11
ATOM     11  C   UNL d   1      53.019  30.165  53.567  0.00  0.00     0.082 C 
BRANCH  11  12
ATOM     12  N   UNL d   1      53.187  29.543  54.084  0.00  0.00    -0.299 N 
ATOM     13  C   UNL d   1      52.928  29.588  54.866  0.00  0.00     0.107 A 
ATOM     14  C   UNL d   1      53.094  28.970  55.385  0.00  0.00     0.142 A 
ATOM     15  O   UNL d   1      53.515  28.312  55.122  0.00  0.00    -0.300 OA
ATOM     16  C   UNL d   1      53.771  28.271  54.340  0.00  0.00     0.142 A 
ATOM     17  C   UNL d   1      53.606  28.892  53.814  0.00  0.00     0.107 A 
ENDBRANCH  11  12
ENDBRANCH  10  11
ENDBRANCH   9  10
ENDBRANCH   8   9
ENDBRANCH   6   8
BRANCH   2  18
ATOM     18  N   UNL d   1      52.439  34.744  53.504  0.00  0.00    -0.225 NA
BRANCH  18  19
ATOM     19  C   UNL d   1      51.780  34.492  53.074  0.00  0.00     0.085 A 
ATOM     20  C   UNL d   1      51.797  34.503  52.242  0.00  0.00     0.049 A 
ATOM     21  C   UNL d   1      51.146  34.254  51.817  0.00  0.00     0.142 A 
ATOM     22  F   UNL d   1      51.162  34.265  50.992  0.00  0.00    -0.204 F 
ATOM     23  C   UNL d   1      50.467  33.990  52.212  0.00  0.00     0.030 A 
ATOM     24  C   UNL d   1      50.451  33.980  53.036  0.00  0.00     0.004 A 
ATOM     25  C   UNL d   1      51.109  34.231  53.466  0.00  0.00     0.019 A 
ENDBRANCH  18  19
ENDBRANCH   2  18
BRANCH   1  26
ATOM     26  N   UNL d   1      53.474  35.130  54.744  0.00  0.00    -0.107 N 
ATOM     27  O   UNL d   1      53.095  35.179  55.489  0.00  0.00    -0.531 OA
ATOM     28  O   UNL d   1      53.788  35.816  54.381  0.00  0.00    -0.531 OA
ENDBRANCH   1  26
TORSDOF 8
ENDMDL
MODEL 3
REMARK VINA RESULT:      -6.9      1.809      4.531
REMARK  8 active torsions:
REMARK  status: ('A' for Active; 'I' for Inactive)
REMARK    1  A    between atoms: N_6  and  C_1 
REMARK    2  A    between atoms: N_8  and  C_2 
REMARK    3  A    between atoms: N_15  and  C_7 
REMARK    4  A    between atoms: C_12  and  N_8 
REMARK    5  A    between atoms: N_10  and  C_19 
REMARK    6  A    between atoms: C_24  and  N_15 
REMARK    7  A    between atoms: C_19  and  C_20 
REMARK    8  A    between atoms: C_20  and  C_24 
ROOT
ATOM      1  C   UNL d   1      52.164  34.125  53.111  0.00  0.00     0.201 A 
ATOM      2  C   UNL d   1      52.758  33.788  53.582  0.00  0.00     0.206 A 
ATOM      3  N   UNL d   1      53.019  33.035  53.391  0.00  0.00    -0.038 NA
ATOM      4  N   UNL d   1      52.127  32.966  52.303  0.00  0.00    -0.036 NA
ATOM      5  C   UNL d   1      51.850  33.715  52.473  0.00  0.00     0.227 A 
ATOM      6  C   UNL d   1      52.705  32.625  52.753  0.00  0.00     0.753 A 
ATOM      7  N   UNL d   1      51.261  34.066  52.018  0.00  0.00    -0.125 N 
ENDROOT
BRANCH   6   8
ATOM      8  N   UNL d   1      52.977  31.869  52.573  0.00  0.00    -0.058 NA
BRANCH   8   9
ATOM      9  C   UNL d   1      52.586  31.210  52.874  0.00  0.00     0.120 C 
BRANCH   9  10
ATOM     10  C   UNL d   1      53.019  30.556  53.126  0.00  0.00     0.040 C 
BRANCH  10  11
ATOM     11  C   UNL d   1      52.630  29.877  53.385  0.00  0.00     0.082 C 
BRANCH  11  12
ATOM     12  N   UNL d   1      52.948  29.422  53.997  0.00  0.00    -0.299 N 
ATOM     13  C   UNL d   1      53.384  28.746  53.813  0.00  0.00     0.107 A 
ATOM     14  C   UNL d   1      53.703  28.289  54.420  0.00  0.00     0.142 A 
ATOM     15  O   UNL d   1      53.586  28.509  55.206  0.00  0.00    -0.300 OA
ATOM     16  C   UNL d   1      53.150  29.184  55.386  0.00  0.00     0.142 A 
ATOM     17  C   UNL d   1      52.827  29.647  54.776  0.00  0.00     0.107 A 
ENDBRANCH  11  12
ENDBRANCH  10  11
ENDBRANCH   9  10
ENDBRANCH   8   9
ENDBRANCH   6   8
BRANCH   2  18
ATOM     18  N   UNL d   1      53.074  34.200  54.223  0.00  0.00    -0.225 NA
BRANCH  18  19
ATOM     19  C   UNL d   1      53.764  33.934  54.590  0.00  0.00     0.085 A 
ATOM     20  C   UNL d   1      53.720  33.379  55.210  0.00  0.00     0.049 A 
ATOM     21  C   UNL d   1      54.402  33.116  55.572  0.00  0.00     0.142 A 
ATOM     22  F   UNL d   1      54.359  32.566  56.185  0.00  0.00    -0.204 F 
ATOM     23  C   UNL d   1      55.140  33.401  55.326  0.00  0.00     0.030 A 
ATOM     24  C   UNL d   1      55.184  33.951  54.713  0.00  0.00     0.004 A 
ATOM     25  C   UNL d   1      54.494  34.217  54.346  0.00  0.00     0.019 A 
ENDBRANCH  18  19
ENDBRANCH   2  18
BRANCH   1  26
ATOM     26  N   UNL d   1      51.886  34.899  53.297  0.00  0.00    -0.107 N 
ATOM     27  O   UNL d   1      52.339  35.563  53.065  0.00  0.00    -0.531 OA
ATOM     28  O   UNL d   1      51.165  35.000  53.710  0.00  0.00    -0.531 OA
ENDBRANCH   1  26
TORSDOF 8
ENDMDL
