MODEL 1
REMARK VINA RESULT:      -3.1      0.000      0.000
REMARK  6 active torsions:
REMARK  status: ('A' for Active; 'I' for Inactive)
REMARK    1  A    between atoms: N_2  and  C_1 
REMARK       I    between atoms: C_4  and  N_2 
REMARK    2  A    between atoms: C_6  and  C_4 
REMARK    3  A    between atoms: C_9  and  C_6 
REMARK    4  A    between atoms: C_8  and  O_15 
REMARK    5  A    between atoms: O_15  and  C_9 
REMARK    6  A    between atoms: O_17  and  C_10 
ROOT
ATOM      1  C   UNL d   1      32.897  19.886 -22.476  0.00  0.00     0.128 C 
ENDROOT
BRANCH   1   2
ATOM      2  C   UNL d   1      33.177  19.104 -22.469  0.00  0.00     0.089 C 
BRANCH   2   3
ATOM      3  C   UNL d   1      32.919  18.573 -23.046  0.00  0.00     0.283 C 
ATOM      4  N   UNL d   1      32.828  17.777 -22.850  0.00  0.00    -0.183 NA
ATOM      5  O   UNL d   1      32.756  18.837 -23.809  0.00  0.00    -0.265 OA
BRANCH   4   6
ATOM      6  C   UNL d   1      32.568  17.245 -23.431  0.00  0.00     0.197 A 
ATOM      7  N   UNL d   1      31.791  17.119 -23.667  0.00  0.00    -0.219 NA
ATOM      8  C   UNL d   1      31.791  16.547 -24.252  0.00  0.00     0.108 A 
ATOM      9  C   UNL d   1      32.576  16.317 -24.380  0.00  0.00     0.059 A 
ATOM     10  S   UNL d   1      33.058  16.747 -23.873  0.00  0.00    -0.046 SA
ENDBRANCH   4   6
ENDBRANCH   2   3
ENDBRANCH   1   2
BRANCH   1  11
ATOM     11  O   UNL d   1      33.145  20.205 -21.757  0.00  0.00    -0.305 OA
BRANCH  11  12
ATOM     12  C   UNL d   1      32.907  20.963 -21.543  0.00  0.00     0.100 A 
ATOM     13  C   UNL d   1      33.225  21.622 -21.930  0.00  0.00     0.027 A 
ATOM     14  C   UNL d   1      32.987  22.380 -21.715  0.00  0.00     0.026 A 
ATOM     15  C   UNL d   1      32.431  22.484 -21.114  0.00  0.00     0.094 A 
ATOM     16  C   UNL d   1      32.114  21.831 -20.729  0.00  0.00     0.026 A 
ATOM     17  C   UNL d   1      32.351  21.068 -20.942  0.00  0.00     0.027 A 
BRANCH  15  18
ATOM     18  O   UNL d   1      32.194  23.251 -20.901  0.00  0.00    -0.328 OA
ATOM     19  C   UNL d   1      31.738  23.702 -21.417  0.00  0.00     0.181 C 
ENDBRANCH  15  18
ENDBRANCH  11  12
ENDBRANCH   1  11
TORSDOF 6
ENDMDL
MODEL 2
REMARK VINA RESULT:      -3.0      2.345      5.248
REMARK  6 active torsions:
REMARK  status: ('A' for Active; 'I' for Inactive)
REMARK    1  A    between atoms: N_2  and  C_1 
REMARK       I    between atoms: C_4  and  N_2 
REMARK    2  A    between atoms: C_6  and  C_4 
REMARK    3  A    between atoms: C_9  and  C_6 
REMARK    4  A    between atoms: C_8  and  O_15 
REMARK    5  A    between atoms: O_15  and  C_9 
REMARK    6  A    between atoms: O_17  and  C_10 
ROOT
ATOM      1  C   UNL d   1      32.850  19.635 -22.248  0.00  0.00     0.128 C 
ENDROOT
BRANCH   1   2
ATOM      2  C   UNL d   1      33.219  20.377 -22.179  0.00  0.00     0.089 C 
BRANCH   2   3
ATOM      3  C   UNL d   1      32.912  20.938 -21.659  0.00  0.00     0.283 C 
ATOM      4  N   UNL d   1      33.052  21.739 -21.799  0.00  0.00    -0.183 NA
ATOM      5  O   UNL d   1      32.469  20.701 -21.006  0.00  0.00    -0.265 OA
BRANCH   4   6
ATOM      6  C   UNL d   1      32.743  22.302 -21.274  0.00  0.00     0.197 A 
ATOM      7  N   UNL d   1      31.987  22.625 -21.294  0.00  0.00    -0.219 NA
ATOM      8  C   UNL d   1      31.920  23.156 -20.676  0.00  0.00     0.108 A 
ATOM      9  C   UNL d   1      32.641  23.163 -20.269  0.00  0.00     0.059 A 
ATOM     10  S   UNL d   1      33.151  22.636 -20.638  0.00  0.00    -0.046 SA
ENDBRANCH   4   6
ENDBRANCH   2   3
ENDBRANCH   1   2
BRANCH   1  11
ATOM     11  O   UNL d   1      33.184  19.296 -22.921  0.00  0.00    -0.305 OA
BRANCH  11  12
ATOM     12  C   UNL d   1      32.918  18.562 -23.184  0.00  0.00     0.100 A 
ATOM     13  C   UNL d   1      32.327  18.521 -23.762  0.00  0.00     0.027 A 
ATOM     14  C   UNL d   1      32.061  17.788 -24.025  0.00  0.00     0.026 A 
ATOM     15  C   UNL d   1      32.382  17.095 -23.714  0.00  0.00     0.094 A 
ATOM     16  C   UNL d   1      32.969  17.134 -23.139  0.00  0.00     0.026 A 
ATOM     17  C   UNL d   1      33.239  17.869 -22.873  0.00  0.00     0.027 A 
BRANCH  15  18
ATOM     18  O   UNL d   1      32.110  16.358 -23.983  0.00  0.00    -0.328 OA
ATOM     19  C   UNL d   1      31.769  15.824 -23.456  0.00  0.00     0.181 C 
ENDBRANCH  15  18
ENDBRANCH  11  12
ENDBRANCH   1  11
TORSDOF 6
ENDMDL
MODEL 3
REMARK VINA RESULT:      -2.4      1.021      1.248
REMARK  6 active torsions:
REMARK  status: ('A' for Active; 'I' for Inactive)
REMARK    1  A    between atoms: N_2  and  C_1 
REMARK       I    between atoms: C_4  and  N_2 
REMARK    2  A    between atoms: C_6  and  C_4 
REMARK    3  A    between atoms: C_9  and  C_6 
REMARK    4  A    between atoms: C_8  and  O_15 
REMARK    5  A    between atoms: O_15  and  C_9 
REMARK    6  A    between atoms: O_17  and  C_10 
ROOT
ATOM      1  C   UNL d   1      32.920  20.544 -21.944  0.00  0.00     0.128 C 
ENDROOT
BRANCH   1   2
ATOM      2  C   UNL d   1      32.946  20.184 -22.693  0.00  0.00     0.089 C 
BRANCH   2   3
ATOM      3  C   UNL d   1      32.890  19.364 -22.754  0.00  0.00     0.283 C 
ATOM      4  N   UNL d   1      32.701  19.024 -23.481  0.00  0.00    -0.183 NA
ATOM      5  O   UNL d   1      33.022  18.888 -22.094  0.00  0.00    -0.265 OA
BRANCH   4   6
ATOM      6  C   UNL d   1      32.645  18.199 -23.541  0.00  0.00     0.197 A 
ATOM      7  N   UNL d   1      32.002  17.735 -23.320  0.00  0.00    -0.219 NA
ATOM      8  C   UNL d   1      32.187  16.954 -23.475  0.00  0.00     0.108 A 
ATOM      9  C   UNL d   1      32.950  16.932 -23.795  0.00  0.00     0.059 A 
ATOM     10  S   UNL d   1      33.235  17.702 -23.836  0.00  0.00    -0.046 SA
ENDBRANCH   4   6
ENDBRANCH   2   3
ENDBRANCH   1   2
BRANCH   1  11
ATOM     11  O   UNL d   1      33.026  21.348 -22.092  0.00  0.00    -0.305 OA
BRANCH  11  12
ATOM     12  C   UNL d   1      32.850  21.899 -21.506  0.00  0.00     0.100 A 
ATOM     13  C   UNL d   1      32.279  22.481 -21.646  0.00  0.00     0.027 A 
ATOM     14  C   UNL d   1      32.102  23.032 -21.060  0.00  0.00     0.026 A 
ATOM     15  C   UNL d   1      32.494  23.004 -20.334  0.00  0.00     0.094 A 
ATOM     16  C   UNL d   1      33.062  22.425 -20.194  0.00  0.00     0.026 A 
ATOM     17  C   UNL d   1      33.241  21.871 -20.781  0.00  0.00     0.027 A 
BRANCH  15  18
ATOM     18  O   UNL d   1      32.312  23.562 -19.746  0.00  0.00    -0.328 OA
ATOM     19  C   UNL d   1      32.609  23.472 -18.984  0.00  0.00     0.181 C 
ENDBRANCH  15  18
ENDBRANCH  11  12
ENDBRANCH   1  11
TORSDOF 6
ENDMDL
MODEL 4
REMARK VINA RESULT:      -1.9      1.246      2.022
REMARK  6 active torsions:
REMARK  status: ('A' for Active; 'I' for Inactive)
REMARK    1  A    between atoms: N_2  and  C_1 
REMARK       I    between atoms: C_4  and  N_2 
REMARK    2  A    between atoms: C_6  and  C_4 
REMARK    3  A    between atoms: C_9  and  C_6 
REMARK    4  A    between atoms: C_8  and  O_15 
REMARK    5  A    between atoms: O_15  and  C_9 
REMARK    6  A    between atoms: O_17  and  C_10 
ROOT
ATOM      1  C   UNL d   1      32.607  18.482 -23.356  0.00  0.00     0.128 C 
ENDROOT
BRANCH   1   2
ATOM      2  C   UNL d   1      32.685  17.655 -23.379  0.00  0.00     0.089 C 
BRANCH   2   3
ATOM      3  C   UNL d   1      32.176  17.210 -23.851  0.00  0.00     0.283 C 
ATOM      4  N   UNL d   1      31.588  16.756 -23.494  0.00  0.00    -0.183 NA
ATOM      5  O   UNL d   1      32.257  17.219 -24.671  0.00  0.00    -0.265 OA
BRANCH   4   6
ATOM      6  C   UNL d   1      31.077  16.308 -23.971  0.00  0.00     0.197 A 
ATOM      7  N   UNL d   1      31.242  16.010 -24.719  0.00  0.00    -0.219 NA
ATOM      8  C   UNL d   1      30.582  15.604 -24.983  0.00  0.00     0.108 A 
ATOM      9  C   UNL d   1      30.003  15.652 -24.393  0.00  0.00     0.059 A 
ATOM     10  S   UNL d   1      30.307  16.087 -23.766  0.00  0.00    -0.046 SA
ENDBRANCH   4   6
ENDBRANCH   2   3
ENDBRANCH   1   2
BRANCH   1  11
ATOM     11  O   UNL d   1      33.232  18.741 -22.885  0.00  0.00    -0.305 OA
BRANCH  11  12
ATOM     12  C   UNL d   1      33.202  19.487 -22.539  0.00  0.00     0.100 A 
ATOM     13  C   UNL d   1      33.141  19.558 -21.717  0.00  0.00     0.027 A 
ATOM     14  C   UNL d   1      33.111  20.304 -21.370  0.00  0.00     0.026 A 
ATOM     15  C   UNL d   1      33.141  20.981 -21.841  0.00  0.00     0.094 A 
ATOM     16  C   UNL d   1      33.201  20.912 -22.659  0.00  0.00     0.026 A 
ATOM     17  C   UNL d   1      33.232  20.163 -23.010  0.00  0.00     0.027 A 
BRANCH  15  18
ATOM     18  O   UNL d   1      33.110  21.731 -21.487  0.00  0.00    -0.328 OA
ATOM     19  C   UNL d   1      32.545  21.895 -20.910  0.00  0.00     0.181 C 
ENDBRANCH  15  18
ENDBRANCH  11  12
ENDBRANCH   1  11
TORSDOF 6
ENDMDL
