MODEL 1
REMARK VINA RESULT:      98.0      0.000      0.000
REMARK  5 active torsions:
REMARK  status: ('A' for Active; 'I' for Inactive)
REMARK    1  A    between atoms: C_4  and  N_1 
REMARK    2  A    between atoms: C_9  and  C_2 
REMARK    3  A    between atoms: C_14  and  C_6 
REMARK    4  A    between atoms: C_7  and  C_9 
REMARK    5  A    between atoms: O_26  and  C_22 
ROOT
ATOM      1  N   UNL d   1     -55.356-100.887 -42.859  0.00  0.00    -0.254 N 
ATOM      2  C   UNL d   1     -55.747 -99.814 -43.557  0.00  0.00     0.101 A 
ATOM      3  C   UNL d   1     -55.489-100.272 -42.325  0.00  0.00     0.305 A 
ATOM      4  C   UNL d   1     -55.732 -99.605 -42.753  0.00  0.00     0.256 A 
ATOM      5  C   UNL d   1     -55.516-100.604 -43.622  0.00  0.00     0.081 A 
ATOM      6  O   UNL d   1     -55.399-100.304 -41.504  0.00  0.00    -0.263 OA
ATOM      7  O   UNL d   1     -55.924 -98.863 -42.434  0.00  0.00    -0.281 OA
ENDROOT
BRANCH   2   8
ATOM      8  C   UNL d   1     -55.959 -99.313 -44.181  0.00  0.00     0.223 C 
ATOM      9  O   UNL d   1     -55.378 -98.940 -44.623  0.00  0.00    -0.284 OA
BRANCH   8  10
ATOM     10  C   UNL d   1     -56.756 -99.189 -44.361  0.00  0.00     0.139 A 
ATOM     11  O   UNL d   1     -57.068 -99.071 -45.116  0.00  0.00    -0.302 OA
ATOM     12  C   UNL d   1     -57.887 -98.970 -45.038  0.00  0.00     0.122 A 
ATOM     13  C   UNL d   1     -58.478 -98.835 -45.592  0.00  0.00     0.117 A 
ATOM     14  C   UNL d   1     -58.075 -99.026 -44.239  0.00  0.00     0.027 A 
ATOM     15  C   UNL d   1     -59.258 -98.756 -45.348  0.00  0.00     0.026 A 
ATOM     16  C   UNL d   1     -59.450 -98.813 -44.541  0.00  0.00     0.002 A 
ATOM     17  C   UNL d   1     -58.857 -98.948 -43.991  0.00  0.00     0.002 A 
ATOM     18  C   UNL d   1     -57.378 -99.162 -43.820  0.00  0.00     0.030 A 
BRANCH  13  19
ATOM     19  O   UNL d   1     -58.289 -98.779 -46.392  0.00  0.00    -0.326 OA
ATOM     20  C   UNL d   1     -57.494 -98.763 -46.633  0.00  0.00     0.181 C 
ENDBRANCH  13  19
ENDBRANCH   8  10
ENDBRANCH   2   8
BRANCH   5  21
ATOM     21  C   UNL d   1     -55.456-101.031 -44.323  0.00  0.00     0.046 A 
ATOM     22  S   UNL d   1     -55.972-100.976 -44.967  0.00  0.00    -0.085 SA
ATOM     23  C   UNL d   1     -55.712-101.496 -45.552  0.00  0.00     0.035 A 
ATOM     24  C   UNL d   1     -55.029-101.877 -45.268  0.00  0.00     0.007 A 
ATOM     25  C   UNL d   1     -54.878-101.586 -44.512  0.00  0.00     0.009 A 
ENDBRANCH   5  21
BRANCH   1  26
ATOM     26  C   UNL d   1     -55.127-101.475 -42.320  0.00  0.00     0.179 A 
ATOM     27  N   UNL d   1     -54.896-102.248 -42.502  0.00  0.00    -0.108 NA
ATOM     28  O   UNL d   1     -54.715-102.641 -41.793  0.00  0.00    -0.210 OA
ATOM     29  C   UNL d   1     -54.835-102.104 -41.164  0.00  0.00     0.128 A 
ATOM     30  C   UNL d   1     -55.088-101.389 -41.487  0.00  0.00     0.067 A 
ATOM     31  C   UNL d   1     -54.719-102.267 -40.365  0.00  0.00     0.029 C 
ENDBRANCH   1  26
TORSDOF 5
ENDMDL
