MODEL 1
REMARK VINA RESULT:      -7.9      0.000      0.000
REMARK  5 active torsions:
REMARK  status: ('A' for Active; 'I' for Inactive)
REMARK    1  A    between atoms: C_12  and  N_1 
REMARK    2  A    between atoms: N_7  and  C_5 
REMARK    3  A    between atoms: C_10  and  N_7 
REMARK    4  A    between atoms: O_14  and  C_13 
REMARK    5  A    between atoms: C_19  and  O_14 
ROOT
ATOM      1  N   UNL d   1     -48.678  12.217  23.102  0.00  0.00    -0.212 N 
ATOM      2  C   UNL d   1     -48.035  12.733  23.077  0.00  0.00     0.170 A 
ATOM      3  C   UNL d   1     -47.347  12.289  23.179  0.00  0.00     0.093 A 
ATOM      4  N   UNL d   1     -48.386  11.449  23.221  0.00  0.00    -0.162 NA
ATOM      5  C   UNL d   1     -46.606  12.662  23.178  0.00  0.00     0.169 A 
ATOM      6  C   UNL d   1     -47.562  11.500  23.268  0.00  0.00     0.127 A 
ATOM      7  N   UNL d   1     -47.992  13.556  22.973  0.00  0.00    -0.205 NA
ATOM      8  N   UNL d   1     -46.564  13.485  23.074  0.00  0.00    -0.205 NA
ATOM      9  C   UNL d   1     -47.256  13.922  22.973  0.00  0.00     0.202 A 
ENDROOT
BRANCH   5  10
ATOM     10  N   UNL d   1     -45.921  12.229  23.279  0.00  0.00    -0.225 NA
BRANCH  10  11
ATOM     11  C   UNL d   1     -45.276  12.364  22.798  0.00  0.00     0.106 A 
ATOM     12  C   UNL d   1     -44.620  11.857  22.818  0.00  0.00     0.118 A 
ATOM     13  C   UNL d   1     -43.975  11.989  22.339  0.00  0.00     0.026 A 
ATOM     14  C   UNL d   1     -43.976  12.647  21.820  0.00  0.00     0.002 A 
ATOM     15  C   UNL d   1     -44.612  13.146  21.795  0.00  0.00     0.002 A 
ATOM     16  C   UNL d   1     -45.269  13.010  22.284  0.00  0.00     0.021 A 
BRANCH  12  17
ATOM     17  O   UNL d   1     -44.627  11.211  23.332  0.00  0.00    -0.304 OA
BRANCH  17  18
ATOM     18  C   UNL d   1     -44.013  10.653  23.303  0.00  0.00     0.123 C 
ATOM     19  C   UNL d   1     -44.093   9.937  23.698  0.00  0.00     0.029 C 
ENDBRANCH  17  18
ENDBRANCH  12  17
ENDBRANCH  10  11
ENDBRANCH   5  10
BRANCH   1  20
ATOM     20  C   UNL d   1     -49.474  12.426  23.024  0.00  0.00     0.085 A 
ATOM     21  C   UNL d   1     -49.902  12.671  23.689  0.00  0.00     0.019 A 
ATOM     22  C   UNL d   1     -50.694  12.880  23.613  0.00  0.00     0.002 A 
ATOM     23  C   UNL d   1     -51.064  12.843  22.868  0.00  0.00     0.000 A 
ATOM     24  C   UNL d   1     -50.639  12.600  22.211  0.00  0.00     0.002 A 
ATOM     25  C   UNL d   1     -49.845  12.389  22.279  0.00  0.00     0.019 A 
ENDBRANCH   1  20
TORSDOF 5
ENDMDL
MODEL 2
REMARK VINA RESULT:      -7.3      1.682      5.114
REMARK  5 active torsions:
REMARK  status: ('A' for Active; 'I' for Inactive)
REMARK    1  A    between atoms: C_12  and  N_1 
REMARK    2  A    between atoms: N_7  and  C_5 
REMARK    3  A    between atoms: C_10  and  N_7 
REMARK    4  A    between atoms: O_14  and  C_13 
REMARK    5  A    between atoms: C_19  and  O_14 
ROOT
ATOM      1  N   UNL d   1     -46.232  13.124  22.829  0.00  0.00    -0.212 N 
ATOM      2  C   UNL d   1     -46.968  13.044  22.464  0.00  0.00     0.170 A 
ATOM      3  C   UNL d   1     -47.544  13.309  22.992  0.00  0.00     0.093 A 
ATOM      4  N   UNL d   1     -46.354  13.439  23.587  0.00  0.00    -0.162 NA
ATOM      5  C   UNL d   1     -48.345  13.295  22.776  0.00  0.00     0.169 A 
ATOM      6  C   UNL d   1     -47.168  13.551  23.682  0.00  0.00     0.127 A 
ATOM      7  N   UNL d   1     -47.184  12.762  21.713  0.00  0.00    -0.205 NA
ATOM      8  N   UNL d   1     -48.560  13.013  22.026  0.00  0.00    -0.205 NA
ATOM      9  C   UNL d   1     -47.979  12.750  21.503  0.00  0.00     0.202 A 
ENDROOT
BRANCH   5  10
ATOM     10  N   UNL d   1     -48.921  13.555  23.294  0.00  0.00    -0.225 NA
BRANCH  10  11
ATOM     11  C   UNL d   1     -49.632  13.158  23.350  0.00  0.00     0.106 A 
ATOM     12  C   UNL d   1     -50.342  13.576  23.442  0.00  0.00     0.118 A 
ATOM     13  C   UNL d   1     -51.053  13.182  23.498  0.00  0.00     0.026 A 
ATOM     14  C   UNL d   1     -51.064  12.346  23.462  0.00  0.00     0.002 A 
ATOM     15  C   UNL d   1     -50.375  11.932  23.373  0.00  0.00     0.002 A 
ATOM     16  C   UNL d   1     -49.651  12.334  23.316  0.00  0.00     0.021 A 
BRANCH  12  17
ATOM     17  O   UNL d   1     -50.323  14.400  23.476  0.00  0.00    -0.304 OA
BRANCH  17  18
ATOM     18  C   UNL d   1     -51.023  14.824  23.615  0.00  0.00     0.123 C 
ATOM     19  C   UNL d   1     -50.995  15.642  23.697  0.00  0.00     0.029 C 
ENDBRANCH  17  18
ENDBRANCH  12  17
ENDBRANCH  10  11
ENDBRANCH   5  10
BRANCH   1  20
ATOM     20  C   UNL d   1     -45.501  12.925  22.499  0.00  0.00     0.085 A 
ATOM     21  C   UNL d   1     -45.139  12.207  22.702  0.00  0.00     0.019 A 
ATOM     22  C   UNL d   1     -44.412  12.008  22.375  0.00  0.00     0.002 A 
ATOM     23  C   UNL d   1     -44.039  12.525  21.840  0.00  0.00     0.000 A 
ATOM     24  C   UNL d   1     -44.399  13.235  21.639  0.00  0.00     0.002 A 
ATOM     25  C   UNL d   1     -45.128  13.442  21.963  0.00  0.00     0.019 A 
ENDBRANCH   1  20
TORSDOF 5
ENDMDL
MODEL 3
REMARK VINA RESULT:      -5.2      8.385      9.993
REMARK  5 active torsions:
REMARK  status: ('A' for Active; 'I' for Inactive)
REMARK    1  A    between atoms: C_12  and  N_1 
REMARK    2  A    between atoms: N_7  and  C_5 
REMARK    3  A    between atoms: C_10  and  N_7 
REMARK    4  A    between atoms: O_14  and  C_13 
REMARK    5  A    between atoms: C_19  and  O_14 
ROOT
ATOM      1  N   UNL d   1     -38.791  13.911  17.551  0.00  0.00    -0.212 N 
ATOM      2  C   UNL d   1     -38.628  14.468  18.138  0.00  0.00     0.170 A 
ATOM      3  C   UNL d   1     -38.914  14.174  18.854  0.00  0.00     0.093 A 
ATOM      4  N   UNL d   1     -39.180  13.270  17.906  0.00  0.00    -0.162 NA
ATOM      5  C   UNL d   1     -38.829  14.616  19.550  0.00  0.00     0.169 A 
ATOM      6  C   UNL d   1     -39.254  13.438  18.712  0.00  0.00     0.127 A 
ATOM      7  N   UNL d   1     -38.253  15.208  18.108  0.00  0.00    -0.205 NA
ATOM      8  N   UNL d   1     -38.454  15.356  19.519  0.00  0.00    -0.205 NA
ATOM      9  C   UNL d   1     -38.170  15.644  18.800  0.00  0.00     0.202 A 
ENDROOT
BRANCH   5  10
ATOM     10  N   UNL d   1     -39.110  14.332  20.263  0.00  0.00    -0.225 NA
BRANCH  10  11
ATOM     11  C   UNL d   1     -39.436  14.843  20.809  0.00  0.00     0.106 A 
ATOM     12  C   UNL d   1     -39.211  14.808  21.606  0.00  0.00     0.118 A 
ATOM     13  C   UNL d   1     -39.535  15.317  22.154  0.00  0.00     0.026 A 
ATOM     14  C   UNL d   1     -40.101  15.882  21.905  0.00  0.00     0.002 A 
ATOM     15  C   UNL d   1     -40.325  15.922  21.129  0.00  0.00     0.002 A 
ATOM     16  C   UNL d   1     -39.994  15.402  20.572  0.00  0.00     0.021 A 
BRANCH  12  17
ATOM     17  O   UNL d   1     -38.652  14.249  21.843  0.00  0.00    -0.304 OA
BRANCH  17  18
ATOM     18  C   UNL d   1     -38.550  14.082  22.650  0.00  0.00     0.123 C 
ATOM     19  C   UNL d   1     -37.963  13.559  22.887  0.00  0.00     0.029 C 
ENDBRANCH  17  18
ENDBRANCH  12  17
ENDBRANCH  10  11
ENDBRANCH   5  10
BRANCH   1  20
ATOM     20  C   UNL d   1     -38.601  13.979  16.749  0.00  0.00     0.085 A 
ATOM     21  C   UNL d   1     -38.129  13.401  16.388  0.00  0.00     0.019 A 
ATOM     22  C   UNL d   1     -37.940  13.468  15.591  0.00  0.00     0.002 A 
ATOM     23  C   UNL d   1     -38.221  14.114  15.147  0.00  0.00     0.000 A 
ATOM     24  C   UNL d   1     -38.688  14.685  15.507  0.00  0.00     0.002 A 
ATOM     25  C   UNL d   1     -38.882  14.626  16.306  0.00  0.00     0.019 A 
ENDBRANCH   1  20
TORSDOF 5
ENDMDL
