MODEL 1
REMARK VINA RESULT:      69.8      0.000      0.000
REMARK  5 active torsions:
REMARK  status: ('A' for Active; 'I' for Inactive)
REMARK    1  A    between atoms: C_16  and  N_3 
REMARK    2  A    between atoms: C_11  and  C_6 
REMARK       I    between atoms: N_20  and  C_11 
REMARK    3  A    between atoms: C_21  and  N_20 
REMARK    4  A    between atoms: C_23  and  C_21 
REMARK    5  A    between atoms: C_22  and  C_23 
ROOT
ATOM      1  C   UNL d   1      14.125  14.358  -3.063  0.00  0.00     0.155 A 
ATOM      2  C   UNL d   1      13.946  14.564  -3.844  0.00  0.00     0.091 A 
ATOM      3  N   UNL d   1      14.507  14.894  -2.573  0.00  0.00    -0.275 N 
ATOM      4  N   UNL d   1      13.918  13.613  -2.781  0.00  0.00    -0.210 NA
ATOM      5  C   UNL d   1      14.722  15.653  -2.850  0.00  0.00     0.175 A 
ATOM      6  C   UNL d   1      14.542  15.860  -3.634  0.00  0.00     0.094 A 
ATOM      7  C   UNL d   1      13.561  14.029  -4.342  0.00  0.00     0.269 A 
ATOM      8  N   UNL d   1      13.355  13.283  -4.054  0.00  0.00    -0.258 N 
ATOM      9  C   UNL d   1      13.532  13.068  -3.271  0.00  0.00     0.152 A 
ATOM     10  C   UNL d   1      14.153  15.319  -4.137  0.00  0.00     0.016 A 
ATOM     11  N   UNL d   1      15.105  16.189  -2.356  0.00  0.00    -0.128 N 
ATOM     12  C   UNL d   1      12.968  12.739  -4.550  0.00  0.00     0.084 A 
ATOM     13  O   UNL d   1      13.382  14.234  -5.122  0.00  0.00    -0.266 OA
ATOM     14  C   UNL d   1      13.326  12.329  -2.992  0.00  0.00     0.038 A 
ATOM     15  C   UNL d   1      12.769  12.003  -4.257  0.00  0.00     0.019 A 
ATOM     16  C   UNL d   1      12.949  11.797  -3.473  0.00  0.00     0.005 A 
ENDROOT
BRANCH   6  17
ATOM     17  C   UNL d   1      14.747  16.606  -3.921  0.00  0.00     0.282 C 
ATOM     18  O   UNL d   1      15.385  17.016  -3.601  0.00  0.00    -0.265 OA
ATOM     19  N   UNL d   1      14.307  16.946  -4.540  0.00  0.00    -0.206 NA
BRANCH  19  20
ATOM     20  C   UNL d   1      14.512  17.692  -4.828  0.00  0.00     0.102 C 
BRANCH  20  21
ATOM     21  C   UNL d   1      14.313  17.903  -5.598  0.00  0.00     0.021 C 
BRANCH  21  22
ATOM     22  C   UNL d   1      14.159  18.690  -5.787  0.00  0.00     0.002 A 
ATOM     23  C   UNL d   1      14.695  19.274  -5.564  0.00  0.00     0.000 A 
ATOM     24  C   UNL d   1      14.548  20.062  -5.749  0.00  0.00     0.000 A 
ATOM     25  C   UNL d   1      13.857  20.259  -6.162  0.00  0.00     0.000 A 
ATOM     26  C   UNL d   1      13.325  19.663  -6.382  0.00  0.00     0.000 A 
ATOM     27  C   UNL d   1      13.480  18.886  -6.193  0.00  0.00     0.000 A 
ENDBRANCH  21  22
ENDBRANCH  20  21
ENDBRANCH  19  20
ENDBRANCH   6  17
BRANCH   3  28
ATOM     28  C   UNL d   1      14.687  14.687  -1.789  0.00  0.00     0.067 C 
ATOM     29  C   UNL d   1      15.357  14.220  -1.630  0.00  0.00     0.019 C 
ATOM     30  C   UNL d   1      14.207  14.942  -1.170  0.00  0.00     0.019 C 
ENDBRANCH   3  28
TORSDOF 5
ENDMDL
MODEL 2
REMARK VINA RESULT:      72.7      1.193      2.182
REMARK  5 active torsions:
REMARK  status: ('A' for Active; 'I' for Inactive)
REMARK    1  A    between atoms: C_16  and  N_3 
REMARK    2  A    between atoms: C_11  and  C_6 
REMARK       I    between atoms: N_20  and  C_11 
REMARK    3  A    between atoms: C_21  and  N_20 
REMARK    4  A    between atoms: C_23  and  C_21 
REMARK    5  A    between atoms: C_22  and  C_23 
ROOT
ATOM      1  C   UNL d   1      14.012  14.036  -2.878  0.00  0.00     0.155 A 
ATOM      2  C   UNL d   1      14.455  14.489  -2.347  0.00  0.00     0.091 A 
ATOM      3  N   UNL d   1      13.735  14.371  -3.575  0.00  0.00    -0.275 N 
ATOM      4  N   UNL d   1      13.849  13.248  -2.705  0.00  0.00    -0.210 NA
ATOM      5  C   UNL d   1      13.895  15.170  -3.761  0.00  0.00     0.175 A 
ATOM      6  C   UNL d   1      14.340  15.626  -3.228  0.00  0.00     0.094 A 
ATOM      7  C   UNL d   1      14.735  14.158  -1.645  0.00  0.00     0.269 A 
ATOM      8  N   UNL d   1      14.571  13.368  -1.474  0.00  0.00    -0.258 N 
ATOM      9  C   UNL d   1      14.126  12.905  -2.003  0.00  0.00     0.152 A 
ATOM     10  C   UNL d   1      14.623  15.290  -2.518  0.00  0.00     0.016 A 
ATOM     11  N   UNL d   1      13.616  15.504  -4.461  0.00  0.00    -0.128 N 
ATOM     12  C   UNL d   1      14.850  13.028  -0.770  0.00  0.00     0.084 A 
ATOM     13  O   UNL d   1      15.178  14.611  -1.114  0.00  0.00    -0.266 OA
ATOM     14  C   UNL d   1      13.966  12.124  -1.829  0.00  0.00     0.038 A 
ATOM     15  C   UNL d   1      14.682  12.245  -0.609  0.00  0.00     0.019 A 
ATOM     16  C   UNL d   1      14.237  11.789  -1.143  0.00  0.00     0.005 A 
ENDROOT
BRANCH   6  17
ATOM     17  C   UNL d   1      14.505  16.416  -3.398  0.00  0.00     0.282 C 
ATOM     18  O   UNL d   1      14.412  16.996  -2.822  0.00  0.00    -0.265 OA
ATOM     19  N   UNL d   1      14.767  16.629  -4.159  0.00  0.00    -0.206 NA
BRANCH  19  20
ATOM     20  C   UNL d   1      14.932  17.418  -4.330  0.00  0.00     0.102 C 
BRANCH  20  21
ATOM     21  C   UNL d   1      15.110  17.641  -5.103  0.00  0.00     0.021 C 
BRANCH  21  22
ATOM     22  C   UNL d   1      14.859  18.371  -5.393  0.00  0.00     0.002 A 
ATOM     23  C   UNL d   1      15.398  18.989  -5.459  0.00  0.00     0.000 A 
ATOM     24  C   UNL d   1      15.155  19.721  -5.748  0.00  0.00     0.000 A 
ATOM     25  C   UNL d   1      14.364  19.825  -5.970  0.00  0.00     0.000 A 
ATOM     26  C   UNL d   1      13.829  19.196  -5.899  0.00  0.00     0.000 A 
ATOM     27  C   UNL d   1      14.080  18.476  -5.611  0.00  0.00     0.000 A 
ENDBRANCH  21  22
ENDBRANCH  20  21
ENDBRANCH  19  20
ENDBRANCH   6  17
BRANCH   3  28
ATOM     28  C   UNL d   1      13.290  13.915  -4.109  0.00  0.00     0.067 C 
ATOM     29  C   UNL d   1      12.780  14.293  -4.646  0.00  0.00     0.019 C 
ATOM     30  C   UNL d   1      13.352  13.094  -4.107  0.00  0.00     0.019 C 
ENDBRANCH   3  28
TORSDOF 5
ENDMDL
