MODEL 1
REMARK VINA RESULT:       7.7      0.000      0.000
REMARK  6 active torsions:
REMARK  status: ('A' for Active; 'I' for Inactive)
REMARK    1  A    between atoms: C_7  and  N_1 
REMARK    2  A    between atoms: S_10  and  C_2 
REMARK    3  A    between atoms: C_22  and  S_10 
REMARK    4  A    between atoms: C_13  and  C_22 
REMARK       I    between atoms: N_17  and  C_13 
REMARK    5  A    between atoms: C_14  and  C_23 
REMARK    6  A    between atoms: C_23  and  N_17 
ROOT
ATOM      1  N   UNL d   1     -42.985-122.737 -49.323  0.00  0.00    -0.254 N 
ATOM      2  C   UNL d   1     -42.290-122.950 -49.717  0.00  0.00     0.183 A 
ATOM      3  N   UNL d   1     -41.639-123.227 -49.295  0.00  0.00    -0.201 NA
ATOM      4  C   UNL d   1     -43.014-122.808 -48.497  0.00  0.00     0.271 A 
ATOM      5  C   UNL d   1     -42.365-123.083 -48.085  0.00  0.00     0.115 A 
ATOM      6  C   UNL d   1     -41.678-123.293 -48.481  0.00  0.00     0.192 A 
ATOM      7  N   UNL d   1     -41.480-123.492 -47.182  0.00  0.00    -0.145 NA
ATOM      8  N   UNL d   1     -41.130-123.546 -47.921  0.00  0.00    -0.128 NA
ATOM      9  C   UNL d   1     -42.250-123.204 -47.277  0.00  0.00     0.130 A 
ATOM     10  O   UNL d   1     -43.708-122.596 -48.099  0.00  0.00    -0.266 OA
ENDROOT
BRANCH   2  11
ATOM     11  S   UNL d   1     -42.248-122.884 -50.544  0.00  0.00    -0.044 SA
BRANCH  11  12
ATOM     12  C   UNL d   1     -41.530-122.702 -50.903  0.00  0.00     0.101 C 
BRANCH  12  13
ATOM     13  C   UNL d   1     -41.349-123.007 -51.648  0.00  0.00     0.286 C 
ATOM     14  N   UNL d   1     -41.345-122.504 -52.306  0.00  0.00    -0.204 NA
ATOM     15  O   UNL d   1     -41.173-123.809 -51.742  0.00  0.00    -0.265 OA
BRANCH  14  16
ATOM     16  C   UNL d   1     -41.165-122.807 -53.053  0.00  0.00     0.127 C 
BRANCH  16  17
ATOM     17  C   UNL d   1     -41.549-122.505 -53.722  0.00  0.00     0.119 A 
ATOM     18  O   UNL d   1     -41.433-122.740 -54.497  0.00  0.00    -0.304 OA
ATOM     19  C   UNL d   1     -41.928-122.296 -54.985  0.00  0.00     0.123 A 
ATOM     20  C   UNL d   1     -42.352-121.783 -54.509  0.00  0.00     0.029 A 
ATOM     21  C   UNL d   1     -42.125-121.905 -53.731  0.00  0.00     0.028 A 
ENDBRANCH  16  17
ENDBRANCH  14  16
ENDBRANCH  12  13
ENDBRANCH  11  12
ENDBRANCH   2  11
BRANCH   1  22
ATOM     22  C   UNL d   1     -43.631-122.463 -49.741  0.00  0.00     0.075 A 
ATOM     23  C   UNL d   1     -44.231-122.988 -49.964  0.00  0.00     0.051 A 
ATOM     24 BR   UNL d   1     -44.176-123.783 -49.765  0.00  0.00    -0.048 Br
ATOM     25  C   UNL d   1     -44.882-122.711 -50.386  0.00  0.00     0.008 A 
ATOM     26  C   UNL d   1     -44.936-121.910 -50.585  0.00  0.00     0.001 A 
ATOM     27  C   UNL d   1     -44.334-121.390 -50.359  0.00  0.00     0.002 A 
ATOM     28  C   UNL d   1     -43.683-121.666 -49.938  0.00  0.00     0.018 A 
ENDBRANCH   1  22
TORSDOF 6
ENDMDL
