MODEL 1
REMARK VINA RESULT:      96.9      0.000      0.000
REMARK  9 active torsions:
REMARK  status: ('A' for Active; 'I' for Inactive)
REMARK    1  A    between atoms: N_2  and  S_1 
REMARK    2  A    between atoms: C_9  and  S_1 
REMARK    3  A    between atoms: C_4  and  N_2 
REMARK    4  A    between atoms: O_19  and  C_6 
REMARK    5  A    between atoms: O_22  and  C_7 
REMARK       I    between atoms: C_12  and  N_13 
REMARK    6  A    between atoms: C_20  and  C_12 
REMARK    7  A    between atoms: N_13  and  C_17 
REMARK    8  A    between atoms: O_18  and  C_20 
REMARK    9  A    between atoms: C_21  and  O_18 
ROOT
ATOM      1  C   UNL d   1      61.551  46.985  50.028  0.00  0.00     0.105 A 
ATOM      2  C   UNL d   1      61.344  46.523  50.680  0.00  0.00     0.015 A 
ATOM      3  C   UNL d   1      61.978  46.670  49.422  0.00  0.00     0.015 A 
ATOM      4  C   UNL d   1      62.010  45.425  50.086  0.00  0.00     0.085 A 
ATOM      5  C   UNL d   1      61.573  45.733  50.716  0.00  0.00     0.020 A 
ATOM      6  C   UNL d   1      62.216  45.878  49.442  0.00  0.00     0.020 A 
ENDROOT
BRANCH   1   7
ATOM      7  S   UNL d   1      61.316  47.788  49.996  0.00  0.00     0.287 S 
ATOM      8  O   UNL d   1      62.114  48.009  49.887  0.00  0.00    -0.198 OA
ATOM      9  O   UNL d   1      60.532  47.553  50.105  0.00  0.00    -0.198 OA
BRANCH   7  10
ATOM     10  N   UNL d   1      61.091  48.582  49.963  0.00  0.00    -0.139 NA
BRANCH  10  11
ATOM     11  C   UNL d   1      60.732  48.951  50.602  0.00  0.00     0.182 A 
ATOM     12  N   UNL d   1      61.160  49.139  51.257  0.00  0.00    -0.185 NA
ATOM     13  C   UNL d   1      60.797  49.513  51.905  0.00  0.00     0.274 A 
ATOM     14  N   UNL d   1      60.019  49.691  51.892  0.00  0.00    -0.181 NA
ATOM     15  C   UNL d   1      59.568  49.507  51.234  0.00  0.00     0.185 A 
ATOM     16  C   UNL d   1      59.941  49.122  50.565  0.00  0.00     0.084 A 
BRANCH  13  17
ATOM     17  O   UNL d   1      61.255  49.705  52.585  0.00  0.00    -0.297 OA
ATOM     18  C   UNL d   1      61.099  49.379  53.318  0.00  0.00     0.185 C 
ENDBRANCH  13  17
BRANCH  15  19
ATOM     19  O   UNL d   1      58.754  49.707  51.248  0.00  0.00    -0.312 OA
ATOM     20  C   UNL d   1      58.326  49.671  50.545  0.00  0.00     0.183 C 
ENDBRANCH  15  19
ENDBRANCH  10  11
ENDBRANCH   7  10
ENDBRANCH   1   7
BRANCH   4  21
ATOM     21  N   UNL d   1      62.252  44.629  50.102  0.00  0.00    -0.206 NA
ATOM     22  C   UNL d   1      61.918  44.134  50.617  0.00  0.00     0.304 C 
ATOM     23  O   UNL d   1      61.318  44.382  51.159  0.00  0.00    -0.263 OA
BRANCH  22  24
ATOM     24  C   UNL d   1      62.150  43.323  50.648  0.00  0.00     0.185 C 
BRANCH  24  25
ATOM     25  O   UNL d   1      62.801  43.027  50.244  0.00  0.00    -0.300 OA
BRANCH  25  26
ATOM     26  C   UNL d   1      62.861  42.232  50.133  0.00  0.00     0.100 A 
ATOM     27  C   UNL d   1      62.785  41.927  49.358  0.00  0.00     0.025 A 
ATOM     28  C   UNL d   1      62.844  41.098  49.210  0.00  0.00     0.002 A 
ATOM     29  C   UNL d   1      62.971  40.607  49.796  0.00  0.00     0.000 A 
ATOM     30  C   UNL d   1      63.051  40.912  50.602  0.00  0.00     0.002 A 
ATOM     31  C   UNL d   1      63.029  39.765  49.635  0.00  0.00     0.000 C 
ATOM     32  C   UNL d   1      62.991  41.720  50.724  0.00  0.00     0.025 A 
ENDBRANCH  25  26
ENDBRANCH  24  25
ENDBRANCH  22  24
ENDBRANCH   4  21
TORSDOF 9
ENDMDL
MODEL 2
REMARK VINA RESULT:      97.7      0.623      1.542
REMARK  9 active torsions:
REMARK  status: ('A' for Active; 'I' for Inactive)
REMARK    1  A    between atoms: N_2  and  S_1 
REMARK    2  A    between atoms: C_9  and  S_1 
REMARK    3  A    between atoms: C_4  and  N_2 
REMARK    4  A    between atoms: O_19  and  C_6 
REMARK    5  A    between atoms: O_22  and  C_7 
REMARK       I    between atoms: C_12  and  N_13 
REMARK    6  A    between atoms: C_20  and  C_12 
REMARK    7  A    between atoms: N_13  and  C_17 
REMARK    8  A    between atoms: O_18  and  C_20 
REMARK    9  A    between atoms: C_21  and  O_18 
ROOT
ATOM      1  C   UNL d   1      61.413  46.800  50.249  0.00  0.00     0.105 A 
ATOM      2  C   UNL d   1      62.015  46.411  49.840  0.00  0.00     0.015 A 
ATOM      3  C   UNL d   1      60.835  46.380  50.624  0.00  0.00     0.015 A 
ATOM      4  C   UNL d   1      61.430  45.173  50.200  0.00  0.00     0.085 A 
ATOM      5  C   UNL d   1      62.030  45.588  49.811  0.00  0.00     0.020 A 
ATOM      6  C   UNL d   1      60.835  45.554  50.604  0.00  0.00     0.020 A 
ENDROOT
BRANCH   1   7
ATOM      7  S   UNL d   1      61.401  47.636  50.276  0.00  0.00     0.287 S 
ATOM      8  O   UNL d   1      61.238  47.653  49.458  0.00  0.00    -0.198 OA
ATOM      9  O   UNL d   1      61.563  47.602  51.085  0.00  0.00    -0.198 OA
BRANCH   7  10
ATOM     10  N   UNL d   1      61.388  48.462  50.295  0.00  0.00    -0.139 NA
BRANCH  10  11
ATOM     11  C   UNL d   1      60.883  48.869  50.798  0.00  0.00     0.182 A 
ATOM     12  N   UNL d   1      60.147  49.079  50.552  0.00  0.00    -0.185 NA
ATOM     13  C   UNL d   1      59.634  49.491  51.060  0.00  0.00     0.274 A 
ATOM     14  N   UNL d   1      59.860  49.687  51.799  0.00  0.00    -0.181 NA
ATOM     15  C   UNL d   1      60.606  49.482  52.067  0.00  0.00     0.185 A 
ATOM     16  C   UNL d   1      61.136  49.056  51.544  0.00  0.00     0.084 A 
BRANCH  13  17
ATOM     17  O   UNL d   1      58.865  49.706  50.791  0.00  0.00    -0.297 OA
ATOM     18  C   UNL d   1      58.472  49.278  50.217  0.00  0.00     0.185 C 
ENDBRANCH  13  17
BRANCH  15  19
ATOM     19  O   UNL d   1      60.817  49.701  52.849  0.00  0.00    -0.312 OA
ATOM     20  C   UNL d   1      60.252  49.629  53.445  0.00  0.00     0.183 C 
ENDBRANCH  15  19
ENDBRANCH  10  11
ENDBRANCH   7  10
ENDBRANCH   1   7
BRANCH   4  21
ATOM     21  N   UNL d   1      61.427  44.341  50.183  0.00  0.00    -0.206 NA
ATOM     22  C   UNL d   1      62.021  43.945  50.517  0.00  0.00     0.304 C 
ATOM     23  O   UNL d   1      62.668  44.336  50.896  0.00  0.00    -0.263 OA
BRANCH  22  24
ATOM     24  C   UNL d   1      62.034  43.101  50.509  0.00  0.00     0.185 C 
BRANCH  24  25
ATOM     25  O   UNL d   1      62.708  42.661  50.670  0.00  0.00    -0.300 OA
BRANCH  25  26
ATOM     26  C   UNL d   1      62.807  41.952  50.302  0.00  0.00     0.100 A 
ATOM     27  C   UNL d   1      63.045  41.292  50.757  0.00  0.00     0.025 A 
ATOM     28  C   UNL d   1      63.157  40.535  50.399  0.00  0.00     0.002 A 
ATOM     29  C   UNL d   1      63.039  40.445  49.639  0.00  0.00     0.000 A 
ATOM     30  C   UNL d   1      62.793  41.121  49.158  0.00  0.00     0.002 A 
ATOM     31  C   UNL d   1      63.156  39.670  49.285  0.00  0.00     0.000 C 
ATOM     32  C   UNL d   1      62.690  41.846  49.525  0.00  0.00     0.025 A 
ENDBRANCH  25  26
ENDBRANCH  24  25
ENDBRANCH  22  24
ENDBRANCH   4  21
TORSDOF 9
ENDMDL
