MODEL 1
REMARK VINA RESULT:      44.2      0.000      0.000
REMARK  11 active torsions:
REMARK  status: ('A' for Active; 'I' for Inactive)
REMARK    1  A    between atoms: C_8  and  S_1 
REMARK    2  A    between atoms: N_19  and  S_1 
REMARK    3  A    between atoms: S_2  and  C_9 
REMARK    4  A    between atoms: N_20  and  S_2 
REMARK    5  A    between atoms: N_14  and  C_5 
REMARK    6  A    between atoms: C_24  and  N_19 
REMARK    7  A    between atoms: C_25  and  N_20 
REMARK    8  A    between atoms: C_29  and  C_24 
REMARK    9  A    between atoms: C_28  and  C_25 
REMARK   10  A    between atoms: O_26  and  C_29 
REMARK   11  A    between atoms: O_27  and  C_28 
ROOT
ATOM      1  C   UNL d   1      46.277 -17.828  42.421  0.00  0.00     0.021 A 
ATOM      2  C   UNL d   1      46.084 -16.750  43.030  0.00  0.00     0.021 A 
ATOM      3  C   UNL d   1      46.229 -17.011  42.343  0.00  0.00     0.111 A 
ATOM      4  C   UNL d   1      46.146 -18.025  43.215  0.00  0.00     0.002 A 
ATOM      5  C   UNL d   1      46.017 -17.321  43.629  0.00  0.00     0.002 A 
ATOM      6  C   UNL d   1      46.436 -19.208  42.116  0.00  0.00     0.105 A 
ATOM      7  C   UNL d   1      45.833 -15.720  43.977  0.00  0.00     0.105 A 
ATOM      8  C   UNL d   1      45.991 -15.949  43.208  0.00  0.00     0.015 A 
ATOM      9  C   UNL d   1      46.421 -18.422  41.875  0.00  0.00     0.015 A 
ATOM     10  C   UNL d   1      45.858 -17.084  44.403  0.00  0.00     0.001 A 
ATOM     11  C   UNL d   1      46.161 -18.812  43.459  0.00  0.00     0.001 A 
ATOM     12  C   UNL d   1      45.764 -16.285  44.583  0.00  0.00     0.013 A 
ATOM     13  C   UNL d   1      46.307 -19.398  42.898  0.00  0.00     0.013 A 
ENDROOT
BRANCH   6  14
ATOM     14  S   UNL d   1      46.565 -19.912  41.702  0.00  0.00     0.285 S 
ATOM     15  O   UNL d   1      46.497 -19.508  40.984  0.00  0.00    -0.198 OA
ATOM     16  O   UNL d   1      46.632 -20.307  42.421  0.00  0.00    -0.198 OA
BRANCH  14  17
ATOM     17  N   UNL d   1      46.643 -20.324  40.992  0.00  0.00    -0.155 NA
BRANCH  17  18
ATOM     18  C   UNL d   1      46.646 -19.916  40.276  0.00  0.00     0.138 C 
BRANCH  18  19
ATOM     19  C   UNL d   1      46.509 -20.315  39.561  0.00  0.00     0.138 C 
BRANCH  19  20
ATOM     20  O   UNL d   1      46.058 -19.974  38.971  0.00  0.00    -0.325 OA
ATOM     21  C   UNL d   1      46.390 -19.802  38.234  0.00  0.00     0.182 C 
ENDBRANCH  19  20
ENDBRANCH  18  19
ENDBRANCH  17  18
ENDBRANCH  14  17
ENDBRANCH   6  14
BRANCH   3  22
ATOM     22  N   UNL d   1      46.325 -16.582  41.643  0.00  0.00    -0.096 NA
ATOM     23  O   UNL d   1      46.470 -16.992  40.933  0.00  0.00    -0.061 OA
ENDBRANCH   3  22
BRANCH   7  24
ATOM     24  S   UNL d   1      45.704 -15.016  44.391  0.00  0.00     0.285 S 
ATOM     25  O   UNL d   1      45.190 -15.411  44.904  0.00  0.00    -0.198 OA
ATOM     26  O   UNL d   1      46.219 -14.620  43.878  0.00  0.00    -0.198 OA
BRANCH  24  27
ATOM     27  N   UNL d   1      45.850 -14.210  44.492  0.00  0.00    -0.155 NA
BRANCH  27  28
ATOM     28  C   UNL d   1      45.442 -13.659  44.033  0.00  0.00     0.138 C 
BRANCH  28  29
ATOM     29  C   UNL d   1      45.346 -12.887  44.308  0.00  0.00     0.138 C 
BRANCH  29  30
ATOM     30  O   UNL d   1      45.154 -12.274  43.777  0.00  0.00    -0.325 OA
ATOM     31  C   UNL d   1      45.337 -12.352  42.984  0.00  0.00     0.182 C 
ENDBRANCH  29  30
ENDBRANCH  28  29
ENDBRANCH  27  28
ENDBRANCH  24  27
ENDBRANCH   7  24
TORSDOF 11
ENDMDL
