MODEL 1
REMARK VINA RESULT:      -4.6      0.000      0.000
REMARK  1 active torsions:
REMARK  status: ('A' for Active; 'I' for Inactive)
REMARK    1  A    between atoms: C_6  and  N_1 
ROOT
ATOM      1  N   UNL d   1      56.388  -0.433  32.662  0.00  0.00    -0.210 N 
ATOM      2  C   UNL d   1      56.857  -0.118  32.064  0.00  0.00     0.196 A 
ATOM      3  N   UNL d   1      56.253  -1.233  32.488  0.00  0.00    -0.161 NA
ATOM      4  C   UNL d   1      57.013  -0.716  31.522  0.00  0.00     0.127 A 
ATOM      5  C   UNL d   1      56.644  -1.403  31.777  0.00  0.00     0.134 A 
ATOM      6  C   UNL d   1      57.467  -0.639  30.831  0.00  0.00     0.106 C 
ATOM      7  N   UNL d   1      57.921  -0.567  30.139  0.00  0.00    -0.191 NA
ATOM      8  N   UNL d   1      57.127   0.682  32.022  0.00  0.00    -0.126 N 
ENDROOT
BRANCH   1   9
ATOM      9  C   UNL d   1      56.081  -0.060  33.337  0.00  0.00     0.085 A 
ATOM     10  C   UNL d   1      55.276   0.119  33.364  0.00  0.00     0.019 A 
ATOM     11  C   UNL d   1      54.965   0.493  34.041  0.00  0.00     0.002 A 
ATOM     12  C   UNL d   1      54.149   0.680  34.081  0.00  0.00     0.000 C 
ATOM     13  C   UNL d   1      55.459   0.680  34.672  0.00  0.00     0.000 A 
ATOM     14  C   UNL d   1      56.262   0.499  34.641  0.00  0.00     0.002 A 
ATOM     15  C   UNL d   1      56.575   0.127  33.968  0.00  0.00     0.019 A 
ENDBRANCH   1   9
TORSDOF 1
ENDMDL
MODEL 2
REMARK VINA RESULT:      -4.2      1.179      3.475
REMARK  1 active torsions:
REMARK  status: ('A' for Active; 'I' for Inactive)
REMARK    1  A    between atoms: C_6  and  N_1 
ROOT
ATOM      1  N   UNL d   1      56.540   0.127  33.178  0.00  0.00    -0.210 N 
ATOM      2  C   UNL d   1      55.785   0.123  33.505  0.00  0.00     0.196 A 
ATOM      3  N   UNL d   1      57.057   0.474  33.728  0.00  0.00    -0.161 NA
ATOM      4  C   UNL d   1      55.831   0.464  34.252  0.00  0.00     0.127 A 
ATOM      5  C   UNL d   1      56.609   0.682  34.394  0.00  0.00     0.134 A 
ATOM      6  C   UNL d   1      55.196   0.572  34.776  0.00  0.00     0.106 C 
ATOM      7  N   UNL d   1      54.563   0.681  35.304  0.00  0.00    -0.191 NA
ATOM      8  N   UNL d   1      55.090  -0.181  33.133  0.00  0.00    -0.126 N 
ENDROOT
BRANCH   1   9
ATOM      9  C   UNL d   1      56.790  -0.153  32.438  0.00  0.00     0.085 A 
ATOM     10  C   UNL d   1      57.152   0.371  31.913  0.00  0.00     0.019 A 
ATOM     11  C   UNL d   1      57.405   0.092  31.169  0.00  0.00     0.002 A 
ATOM     12  C   UNL d   1      57.774   0.615  30.627  0.00  0.00     0.000 C 
ATOM     13  C   UNL d   1      57.293  -0.696  30.966  0.00  0.00     0.000 A 
ATOM     14  C   UNL d   1      56.931  -1.216  31.492  0.00  0.00     0.002 A 
ATOM     15  C   UNL d   1      56.678  -0.942  32.234  0.00  0.00     0.019 A 
ENDBRANCH   1   9
TORSDOF 1
ENDMDL
MODEL 3
REMARK VINA RESULT:      -3.9      9.010      9.886
REMARK  1 active torsions:
REMARK  status: ('A' for Active; 'I' for Inactive)
REMARK    1  A    between atoms: C_6  and  N_1 
ROOT
ATOM      1  N   UNL d   1      59.635  -9.412  33.932  0.00  0.00    -0.210 N 
ATOM      2  C   UNL d   1      60.275  -9.411  33.416  0.00  0.00     0.196 A 
ATOM      3  N   UNL d   1      58.964  -9.663  33.511  0.00  0.00    -0.161 NA
ATOM      4  C   UNL d   1      60.007  -9.658  32.678  0.00  0.00     0.127 A 
ATOM      5  C   UNL d   1      59.203  -9.815  32.731  0.00  0.00     0.134 A 
ATOM      6  C   UNL d   1      60.471  -9.737  31.995  0.00  0.00     0.106 C 
ATOM      7  N   UNL d   1      60.931  -9.818  31.308  0.00  0.00    -0.191 NA
ATOM      8  N   UNL d   1      61.066  -9.191  33.615  0.00  0.00    -0.126 N 
ENDROOT
BRANCH   1   9
ATOM      9  C   UNL d   1      59.611  -9.209  34.736  0.00  0.00     0.085 A 
ATOM     10  C   UNL d   1      59.471  -8.424  34.947  0.00  0.00     0.019 A 
ATOM     11  C   UNL d   1      59.446  -8.217  35.754  0.00  0.00     0.002 A 
ATOM     12  C   UNL d   1      59.304  -7.422  35.981  0.00  0.00     0.000 C 
ATOM     13  C   UNL d   1      59.562  -8.792  36.330  0.00  0.00     0.000 A 
ATOM     14  C   UNL d   1      59.702  -9.575  36.116  0.00  0.00     0.002 A 
ATOM     15  C   UNL d   1      59.726  -9.785  35.312  0.00  0.00     0.019 A 
ENDBRANCH   1   9
TORSDOF 1
ENDMDL
MODEL 4
REMARK VINA RESULT:      -3.8      1.410      2.217
REMARK  1 active torsions:
REMARK  status: ('A' for Active; 'I' for Inactive)
REMARK    1  A    between atoms: C_6  and  N_1 
ROOT
ATOM      1  N   UNL d   1      57.523   0.023  31.146  0.00  0.00    -0.210 N 
ATOM      2  C   UNL d   1      58.287   0.326  31.187  0.00  0.00     0.196 A 
ATOM      3  N   UNL d   1      57.401  -0.266  30.377  0.00  0.00    -0.161 NA
ATOM      4  C   UNL d   1      58.639   0.227  30.449  0.00  0.00     0.127 A 
ATOM      5  C   UNL d   1      58.099  -0.136  29.949  0.00  0.00     0.134 A 
ATOM      6  C   UNL d   1      59.410   0.455  30.245  0.00  0.00     0.106 C 
ATOM      7  N   UNL d   1      60.181   0.682  30.036  0.00  0.00    -0.191 NA
ATOM      8  N   UNL d   1      58.641   0.675  31.869  0.00  0.00    -0.126 N 
ENDROOT
BRANCH   1   9
ATOM      9  C   UNL d   1      56.942  -0.011  31.737  0.00  0.00     0.085 A 
ATOM     10  C   UNL d   1      56.712  -0.746  32.032  0.00  0.00     0.019 A 
ATOM     11  C   UNL d   1      56.129  -0.783  32.626  0.00  0.00     0.002 A 
ATOM     12  C   UNL d   1      55.887  -1.525  32.933  0.00  0.00     0.000 C 
ATOM     13  C   UNL d   1      55.789  -0.091  32.912  0.00  0.00     0.000 A 
ATOM     14  C   UNL d   1      56.021   0.642  32.616  0.00  0.00     0.002 A 
ATOM     15  C   UNL d   1      56.602   0.682  32.024  0.00  0.00     0.019 A 
ENDBRANCH   1   9
TORSDOF 1
ENDMDL
MODEL 5
REMARK VINA RESULT:      -3.8      1.111      3.582
REMARK  1 active torsions:
REMARK  status: ('A' for Active; 'I' for Inactive)
REMARK    1  A    between atoms: C_6  and  N_1 
ROOT
ATOM      1  N   UNL d   1      56.793  -0.511  31.839  0.00  0.00    -0.210 N 
ATOM      2  C   UNL d   1      56.625  -0.086  32.523  0.00  0.00     0.196 A 
ATOM      3  N   UNL d   1      56.364  -1.222  31.866  0.00  0.00    -0.161 NA
ATOM      4  C   UNL d   1      56.095  -0.527  32.973  0.00  0.00     0.127 A 
ATOM      5  C   UNL d   1      55.932  -1.225  32.574  0.00  0.00     0.134 A 
ATOM      6  C   UNL d   1      55.779  -0.304  33.707  0.00  0.00     0.106 C 
ATOM      7  N   UNL d   1      55.460  -0.085  34.442  0.00  0.00    -0.191 NA
ATOM      8  N   UNL d   1      56.944   0.670  32.722  0.00  0.00    -0.126 N 
ENDROOT
BRANCH   1   9
ATOM      9  C   UNL d   1      57.293  -0.311  31.209  0.00  0.00     0.085 A 
ATOM     10  C   UNL d   1      57.698  -0.910  30.811  0.00  0.00     0.019 A 
ATOM     11  C   UNL d   1      58.201  -0.711  30.177  0.00  0.00     0.002 A 
ATOM     12  C   UNL d   1      58.617  -1.311  29.765  0.00  0.00     0.000 C 
ATOM     13  C   UNL d   1      58.289   0.075  29.954  0.00  0.00     0.000 A 
ATOM     14  C   UNL d   1      57.884   0.671  30.352  0.00  0.00     0.002 A 
ATOM     15  C   UNL d   1      57.382   0.476  30.985  0.00  0.00     0.019 A 
ENDBRANCH   1   9
TORSDOF 1
ENDMDL
