MODEL 1
REMARK VINA RESULT:      19.7      0.000      0.000
REMARK  1 active torsions:
REMARK  status: ('A' for Active; 'I' for Inactive)
REMARK    1  A    between atoms: C_13  and  N_3 
ROOT
ATOM      1  C   UNL d   1      46.215 -18.287  44.056  0.00  0.00     0.166 A 
ATOM      2  C   UNL d   1      46.238 -18.107  43.255  0.00  0.00     0.117 A 
ATOM      3  N   UNL d   1      46.333 -19.106  44.113  0.00  0.00    -0.289 N 
ATOM      4  C   UNL d   1      46.364 -18.784  42.831  0.00  0.00     0.038 A 
ATOM      5  N   UNL d   1      46.093 -17.699  44.630  0.00  0.00    -0.225 NA
ATOM      6  C   UNL d   1      46.423 -19.407  43.365  0.00  0.00     0.067 A 
ATOM      7  N   UNL d   1      46.133 -17.313  43.043  0.00  0.00    -0.241 NA
ATOM      8  C   UNL d   1      45.993 -16.931  44.404  0.00  0.00     0.101 A 
ATOM      9  C   UNL d   1      46.015 -16.743  43.597  0.00  0.00     0.099 A 
ATOM     10  C   UNL d   1      46.554 -20.177  43.091  0.00  0.00     0.018 A 
ATOM     11  C   UNL d   1      46.435 -18.932  42.022  0.00  0.00     0.015 A 
ATOM     12  C   UNL d   1      46.565 -19.697  41.744  0.00  0.00     0.058 A 
ATOM     13  C   UNL d   1      46.625 -20.320  42.279  0.00  0.00     0.013 A 
ATOM     14 CL   UNL d   1      46.637 -19.845  40.936  0.00  0.00    -0.082 Cl
ATOM     15  C   UNL d   1      45.874 -16.352  44.955  0.00  0.00     0.021 A 
ATOM     16  C   UNL d   1      45.914 -15.966  43.365  0.00  0.00     0.021 A 
ATOM     17  C   UNL d   1      45.772 -15.558  44.701  0.00  0.00     0.002 A 
ATOM     18  C   UNL d   1      45.790 -15.355  43.920  0.00  0.00     0.002 A 
ENDROOT
BRANCH   3  19
ATOM     19  C   UNL d   1      46.353 -19.528  44.802  0.00  0.00     0.082 C 
ATOM     20  C   UNL d   1      45.762 -20.119  44.926  0.00  0.00     0.021 C 
ENDBRANCH   3  19
TORSDOF 1
ENDMDL
