MODEL 1
REMARK VINA RESULT:      77.0      0.000      0.000
REMARK  3 active torsions:
REMARK  status: ('A' for Active; 'I' for Inactive)
REMARK    1  A    between atoms: C_2  and  S_1 
REMARK    2  A    between atoms: N_3  and  S_1 
REMARK    3  A    between atoms: C_8  and  N_3 
ROOT
ATOM      1  S   UNL d   1     -48.536  28.578  34.855  0.00  0.00     0.327 S 
ATOM      2  O   UNL d   1     -48.040  28.579  34.190  0.00  0.00    -0.186 OA
ATOM      3  O   UNL d   1     -49.029  28.578  35.516  0.00  0.00    -0.186 OA
ENDROOT
BRANCH   1   4
ATOM      4  C   UNL d   1     -48.042  29.125  35.224  0.00  0.00     0.116 A 
ATOM      5  C   UNL d   1     -48.055  29.915  34.992  0.00  0.00     0.013 A 
ATOM      6  C   UNL d   1     -47.556  30.468  35.365  0.00  0.00     0.001 A 
ATOM      7  C   UNL d   1     -48.562  30.169  34.391  0.00  0.00     0.001 A 
ATOM      8  C   UNL d   1     -47.570  31.259  35.133  0.00  0.00     0.000 A 
ATOM      9  C   UNL d   1     -47.048  30.227  35.966  0.00  0.00     0.000 A 
ATOM     10  C   UNL d   1     -48.078  31.500  34.533  0.00  0.00     0.000 A 
ATOM     11  C   UNL d   1     -48.576  30.959  34.158  0.00  0.00     0.000 A 
ATOM     12  C   UNL d   1     -47.032  29.433  36.200  0.00  0.00     0.001 A 
ATOM     13  C   UNL d   1     -47.532  28.880  35.827  0.00  0.00     0.014 A 
ENDBRANCH   1   4
BRANCH   1  14
ATOM     14  N   UNL d   1     -49.030  28.030  34.486  0.00  0.00    -0.318 NA
BRANCH  14  15
ATOM     15  C   UNL d   1     -49.524  27.483  34.117  0.00  0.00     0.141 A 
ATOM     16  C   UNL d   1     -50.294  27.680  33.932  0.00  0.00     0.028 A 
ATOM     17  C   UNL d   1     -50.784  27.138  33.567  0.00  0.00     0.101 A 
ATOM     18  C   UNL d   1     -51.393  27.694  33.569  0.00  0.00     0.029 C 
ATOM     19  C   UNL d   1     -51.570  27.145  33.306  0.00  0.00     0.029 C 
ATOM     20  N   UNL d   1     -50.502  26.387  33.382  0.00  0.00    -0.295 NA
ATOM     21  C   UNL d   1     -49.726  26.183  33.567  0.00  0.00     0.101 A 
ATOM     22  C   UNL d   1     -49.232  26.731  33.936  0.00  0.00     0.028 A 
ATOM     23  C   UNL d   1     -49.111  25.633  33.569  0.00  0.00     0.029 C 
ATOM     24  C   UNL d   1     -49.640  25.403  33.306  0.00  0.00     0.029 C 
ENDBRANCH  14  15
ENDBRANCH   1  14
TORSDOF 3
ENDMDL
MODEL 2
REMARK VINA RESULT:      77.1      0.932      4.366
REMARK  3 active torsions:
REMARK  status: ('A' for Active; 'I' for Inactive)
REMARK    1  A    between atoms: C_2  and  S_1 
REMARK    2  A    between atoms: N_3  and  S_1 
REMARK    3  A    between atoms: C_8  and  N_3 
ROOT
ATOM      1  S   UNL d   1     -49.299  27.513  34.092  0.00  0.00     0.327 S 
ATOM      2  O   UNL d   1     -49.525  27.335  34.869  0.00  0.00    -0.186 OA
ATOM      3  O   UNL d   1     -49.074  27.689  33.318  0.00  0.00    -0.186 OA
ENDROOT
BRANCH   1   4
ATOM      4  C   UNL d   1     -49.640  26.809  33.832  0.00  0.00     0.116 A 
ATOM      5  C   UNL d   1     -50.452  26.767  33.702  0.00  0.00     0.013 A 
ATOM      6  C   UNL d   1     -50.796  26.055  33.439  0.00  0.00     0.001 A 
ATOM      7  C   UNL d   1     -50.933  27.426  33.829  0.00  0.00     0.001 A 
ATOM      8  C   UNL d   1     -51.609  26.013  33.309  0.00  0.00     0.000 A 
ATOM      9  C   UNL d   1     -50.326  25.392  33.308  0.00  0.00     0.000 A 
ATOM     10  C   UNL d   1     -52.079  26.676  33.439  0.00  0.00     0.000 A 
ATOM     11  C   UNL d   1     -51.745  27.385  33.700  0.00  0.00     0.000 A 
ATOM     12  C   UNL d   1     -49.510  25.432  33.438  0.00  0.00     0.001 A 
ATOM     13  C   UNL d   1     -49.165  26.144  33.701  0.00  0.00     0.014 A 
ENDBRANCH   1   4
BRANCH   1  14
ATOM     14  N   UNL d   1     -48.958  28.217  34.352  0.00  0.00    -0.318 NA
BRANCH  14  15
ATOM     15  C   UNL d   1     -48.616  28.922  34.613  0.00  0.00     0.141 A 
ATOM     16  C   UNL d   1     -48.823  29.632  34.269  0.00  0.00     0.028 A 
ATOM     17  C   UNL d   1     -48.485  30.330  34.527  0.00  0.00     0.101 A 
ATOM     18  C   UNL d   1     -48.929  30.745  33.969  0.00  0.00     0.029 C 
ATOM     19  C   UNL d   1     -48.559  31.127  34.314  0.00  0.00     0.029 C 
ATOM     20  N   UNL d   1     -47.933  30.320  35.136  0.00  0.00    -0.295 NA
ATOM     21  C   UNL d   1     -47.721  29.605  35.487  0.00  0.00     0.101 A 
ATOM     22  C   UNL d   1     -48.062  28.901  35.226  0.00  0.00     0.028 A 
ATOM     23  C   UNL d   1     -47.281  29.181  36.041  0.00  0.00     0.029 C 
ATOM     24  C   UNL d   1     -47.165  29.804  36.066  0.00  0.00     0.029 C 
ENDBRANCH  14  15
ENDBRANCH   1  14
TORSDOF 3
ENDMDL
MODEL 3
REMARK VINA RESULT:      78.7      0.318      1.338
REMARK  3 active torsions:
REMARK  status: ('A' for Active; 'I' for Inactive)
REMARK    1  A    between atoms: C_2  and  S_1 
REMARK    2  A    between atoms: N_3  and  S_1 
REMARK    3  A    between atoms: C_8  and  N_3 
ROOT
ATOM      1  S   UNL d   1     -48.678  28.308  34.793  0.00  0.00     0.327 S 
ATOM      2  O   UNL d   1     -48.202  28.300  34.114  0.00  0.00    -0.186 OA
ATOM      3  O   UNL d   1     -49.152  28.316  35.468  0.00  0.00    -0.186 OA
ENDROOT
BRANCH   1   4
ATOM      4  C   UNL d   1     -48.164  28.846  35.147  0.00  0.00     0.116 A 
ATOM      5  C   UNL d   1     -48.194  29.642  34.941  0.00  0.00     0.013 A 
ATOM      6  C   UNL d   1     -47.674  30.186  35.298  0.00  0.00     0.001 A 
ATOM      7  C   UNL d   1     -48.736  29.912  34.379  0.00  0.00     0.001 A 
ATOM      8  C   UNL d   1     -47.703  30.983  35.092  0.00  0.00     0.000 A 
ATOM      9  C   UNL d   1     -47.129  29.929  35.859  0.00  0.00     0.000 A 
ATOM     10  C   UNL d   1     -48.248  31.240  34.531  0.00  0.00     0.000 A 
ATOM     11  C   UNL d   1     -48.767  30.708  34.171  0.00  0.00     0.000 A 
ATOM     12  C   UNL d   1     -47.098  29.129  36.068  0.00  0.00     0.001 A 
ATOM     13  C   UNL d   1     -47.618  28.585  35.711  0.00  0.00     0.014 A 
ENDBRANCH   1   4
BRANCH   1  14
ATOM     14  N   UNL d   1     -49.193  27.769  34.439  0.00  0.00    -0.318 NA
BRANCH  14  15
ATOM     15  C   UNL d   1     -49.708  27.231  34.084  0.00  0.00     0.141 A 
ATOM     16  C   UNL d   1     -49.457  26.475  33.907  0.00  0.00     0.028 A 
ATOM     17  C   UNL d   1     -49.967  25.941  33.556  0.00  0.00     0.101 A 
ATOM     18  C   UNL d   1     -49.367  25.375  33.558  0.00  0.00     0.029 C 
ATOM     19  C   UNL d   1     -49.905  25.155  33.306  0.00  0.00     0.029 C 
ATOM     20  N   UNL d   1     -50.738  26.164  33.379  0.00  0.00    -0.295 NA
ATOM     21  C   UNL d   1     -50.997  26.926  33.556  0.00  0.00     0.101 A 
ATOM     22  C   UNL d   1     -50.482  27.465  33.910  0.00  0.00     0.028 A 
ATOM     23  C   UNL d   1     -51.590  27.499  33.558  0.00  0.00     0.029 C 
ATOM     24  C   UNL d   1     -51.785  26.951  33.305  0.00  0.00     0.029 C 
ENDBRANCH  14  15
ENDBRANCH   1  14
TORSDOF 3
ENDMDL
MODEL 4
REMARK VINA RESULT:      79.3      2.754      4.204
REMARK  3 active torsions:
REMARK  status: ('A' for Active; 'I' for Inactive)
REMARK    1  A    between atoms: C_2  and  S_1 
REMARK    2  A    between atoms: N_3  and  S_1 
REMARK    3  A    between atoms: C_8  and  N_3 
ROOT
ATOM      1  S   UNL d   1     -51.038  26.003  34.005  0.00  0.00     0.327 S 
ATOM      2  O   UNL d   1     -51.399  26.721  33.803  0.00  0.00    -0.186 OA
ATOM      3  O   UNL d   1     -50.679  25.287  34.206  0.00  0.00    -0.186 OA
ENDROOT
BRANCH   1   4
ATOM      4  C   UNL d   1     -50.335  26.401  34.164  0.00  0.00     0.116 A 
ATOM      5  C   UNL d   1     -49.615  26.075  33.933  0.00  0.00     0.013 A 
ATOM      6  C   UNL d   1     -48.903  26.477  34.093  0.00  0.00     0.001 A 
ATOM      7  C   UNL d   1     -49.588  25.348  33.541  0.00  0.00     0.001 A 
ATOM      8  C   UNL d   1     -48.183  26.150  33.862  0.00  0.00     0.000 A 
ATOM      9  C   UNL d   1     -48.917  27.202  34.483  0.00  0.00     0.000 A 
ATOM     10  C   UNL d   1     -48.169  25.426  33.472  0.00  0.00     0.000 A 
ATOM     11  C   UNL d   1     -48.869  25.021  33.309  0.00  0.00     0.000 A 
ATOM     12  C   UNL d   1     -49.640  27.531  34.716  0.00  0.00     0.001 A 
ATOM     13  C   UNL d   1     -50.351  27.129  34.556  0.00  0.00     0.014 A 
ENDBRANCH   1   4
BRANCH   1  14
ATOM     14  N   UNL d   1     -51.743  25.604  33.846  0.00  0.00    -0.318 NA
BRANCH  14  15
ATOM     15  C   UNL d   1     -52.448  25.206  33.687  0.00  0.00     0.141 A 
ATOM     16  C   UNL d   1     -53.144  25.621  33.591  0.00  0.00     0.028 A 
ATOM     17  C   UNL d   1     -53.842  25.226  33.434  0.00  0.00     0.101 A 
ATOM     18  C   UNL d   1     -54.241  25.948  33.416  0.00  0.00     0.029 C 
ATOM     19  C   UNL d   1     -54.627  25.458  33.308  0.00  0.00     0.029 C 
ATOM     20  N   UNL d   1     -53.847  24.406  33.371  0.00  0.00    -0.295 NA
ATOM     21  C   UNL d   1     -53.147  23.983  33.467  0.00  0.00     0.101 A 
ATOM     22  C   UNL d   1     -52.442  24.381  33.626  0.00  0.00     0.028 A 
ATOM     23  C   UNL d   1     -52.740  23.265  33.486  0.00  0.00     0.029 C 
ATOM     24  C   UNL d   1     -53.358  23.189  33.368  0.00  0.00     0.029 C 
ENDBRANCH  14  15
ENDBRANCH   1  14
TORSDOF 3
ENDMDL
