MODEL 1
REMARK VINA RESULT:      -1.5      0.000      0.000
REMARK  5 active torsions:
REMARK  status: ('A' for Active; 'I' for Inactive)
REMARK    1  A    between atoms: C_3  and  C_1 
REMARK    2  A    between atoms: C_7  and  C_2 
REMARK       I    between atoms: N_5  and  C_3 
REMARK    3  A    between atoms: C_6  and  N_5 
REMARK    4  A    between atoms: N_10  and  C_6 
REMARK    5  A    between atoms: C_11  and  N_10 
ROOT
ATOM      1  C   UNL d   1      30.532  16.261 -23.428  0.00  0.00     0.103 A 
ATOM      2  C   UNL d   1      29.715  16.382 -23.455  0.00  0.00     0.116 A 
ATOM      3  N   UNL d   1      29.376  15.920 -22.865  0.00  0.00    -0.126 NA
ATOM      4  O   UNL d   1      29.979  15.514 -22.474  0.00  0.00    -0.211 OA
ATOM      5  C   UNL d   1      30.680  15.729 -22.825  0.00  0.00     0.131 A 
ATOM      6  C   UNL d   1      31.420  15.455 -22.608  0.00  0.00     0.029 C 
ENDROOT
BRANCH   1   7
ATOM      7  C   UNL d   1      31.074  16.618 -23.924  0.00  0.00     0.285 C 
ATOM      8  N   UNL d   1      31.710  17.040 -23.635  0.00  0.00    -0.179 NA
ATOM      9  O   UNL d   1      30.975  16.551 -24.743  0.00  0.00    -0.265 OA
BRANCH   8  10
ATOM     10  C   UNL d   1      32.252  17.398 -24.131  0.00  0.00     0.224 C 
ATOM     11  S   UNL d   1      32.090  17.439 -24.940  0.00  0.00    -0.037 SA
BRANCH  10  12
ATOM     12  N   UNL d   1      32.952  17.715 -23.841  0.00  0.00    -0.215 NA
BRANCH  12  13
ATOM     13  C   UNL d   1      33.019  18.513 -23.750  0.00  0.00     0.111 A 
ATOM     14  C   UNL d   1      33.161  18.833 -23.003  0.00  0.00     0.158 A 
ATOM     15  F   UNL d   1      33.234  18.335 -22.350  0.00  0.00    -0.203 F 
ATOM     16  C   UNL d   1      33.229  19.652 -22.909  0.00  0.00     0.031 A 
ATOM     17  C   UNL d   1      33.156  20.149 -23.559  0.00  0.00     0.002 A 
ATOM     18  C   UNL d   1      33.014  19.830 -24.309  0.00  0.00     0.002 A 
ATOM     19  C   UNL d   1      32.945  19.011 -24.403  0.00  0.00     0.021 A 
ENDBRANCH  12  13
ENDBRANCH  10  12
ENDBRANCH   8  10
ENDBRANCH   1   7
BRANCH   2  20
ATOM     20  C   UNL d   1      29.313  16.875 -23.976  0.00  0.00     0.031 A 
ATOM     21  C   UNL d   1      28.864  16.553 -24.582  0.00  0.00     0.059 A 
ATOM     22 CL   UNL d   1      28.817  15.738 -24.667  0.00  0.00    -0.082 Cl
ATOM     23  C   UNL d   1      28.467  17.046 -25.097  0.00  0.00     0.011 A 
ATOM     24  C   UNL d   1      28.513  17.869 -25.013  0.00  0.00     0.001 A 
ATOM     25  C   UNL d   1      28.965  18.183 -24.403  0.00  0.00     0.000 A 
ATOM     26  C   UNL d   1      29.372  17.693 -23.875  0.00  0.00     0.002 A 
ENDBRANCH   2  20
TORSDOF 5
ENDMDL
MODEL 2
REMARK VINA RESULT:      -1.3      1.452      1.864
REMARK  5 active torsions:
REMARK  status: ('A' for Active; 'I' for Inactive)
REMARK    1  A    between atoms: C_3  and  C_1 
REMARK    2  A    between atoms: C_7  and  C_2 
REMARK       I    between atoms: N_5  and  C_3 
REMARK    3  A    between atoms: C_6  and  N_5 
REMARK    4  A    between atoms: N_10  and  C_6 
REMARK    5  A    between atoms: C_11  and  N_10 
ROOT
ATOM      1  C   UNL d   1      31.802  16.616 -24.254  0.00  0.00     0.103 A 
ATOM      2  C   UNL d   1      31.091  16.560 -24.673  0.00  0.00     0.116 A 
ATOM      3  N   UNL d   1      31.095  15.841 -25.071  0.00  0.00    -0.126 NA
ATOM      4  O   UNL d   1      31.803  15.453 -24.902  0.00  0.00    -0.211 OA
ATOM      5  C   UNL d   1      32.227  15.934 -24.403  0.00  0.00     0.131 A 
ATOM      6  C   UNL d   1      32.967  15.762 -24.095  0.00  0.00     0.029 C 
ENDROOT
BRANCH   1   7
ATOM      7  C   UNL d   1      32.018  17.248 -23.784  0.00  0.00     0.285 C 
ATOM      8  N   UNL d   1      32.610  17.767 -24.004  0.00  0.00    -0.179 NA
ATOM      9  O   UNL d   1      31.627  17.367 -23.065  0.00  0.00    -0.265 OA
BRANCH   8  10
ATOM     10  C   UNL d   1      32.826  18.399 -23.534  0.00  0.00     0.224 C 
ATOM     11  S   UNL d   1      33.185  18.252 -22.803  0.00  0.00    -0.037 SA
BRANCH  10  12
ATOM     12  N   UNL d   1      32.696  19.173 -23.773  0.00  0.00    -0.215 NA
BRANCH  12  13
ATOM     13  C   UNL d   1      32.874  19.779 -23.272  0.00  0.00     0.111 A 
ATOM     14  C   UNL d   1      32.985  20.541 -23.568  0.00  0.00     0.158 A 
ATOM     15  F   UNL d   1      32.912  20.682 -24.378  0.00  0.00    -0.203 F 
ATOM     16  C   UNL d   1      33.168  21.162 -23.055  0.00  0.00     0.031 A 
ATOM     17  C   UNL d   1      33.241  21.024 -22.248  0.00  0.00     0.002 A 
ATOM     18  C   UNL d   1      33.130  20.260 -21.949  0.00  0.00     0.002 A 
ATOM     19  C   UNL d   1      32.947  19.638 -22.463  0.00  0.00     0.021 A 
ENDBRANCH  12  13
ENDBRANCH  10  12
ENDBRANCH   8  10
ENDBRANCH   1   7
BRANCH   2  20
ATOM     20  C   UNL d   1      30.490  17.120 -24.688  0.00  0.00     0.031 A 
ATOM     21  C   UNL d   1      29.773  16.963 -24.324  0.00  0.00     0.059 A 
ATOM     22 CL   UNL d   1      29.656  16.245 -23.944  0.00  0.00    -0.082 Cl
ATOM     23  C   UNL d   1      29.179  17.522 -24.342  0.00  0.00     0.011 A 
ATOM     24  C   UNL d   1      29.294  18.247 -24.725  0.00  0.00     0.001 A 
ATOM     25  C   UNL d   1      30.017  18.397 -25.088  0.00  0.00     0.000 A 
ATOM     26  C   UNL d   1      30.625  17.838 -25.076  0.00  0.00     0.002 A 
ENDBRANCH   2  20
TORSDOF 5
ENDMDL
MODEL 3
REMARK VINA RESULT:       0.4      1.373      2.191
REMARK  5 active torsions:
REMARK  status: ('A' for Active; 'I' for Inactive)
REMARK    1  A    between atoms: C_3  and  C_1 
REMARK    2  A    between atoms: C_7  and  C_2 
REMARK       I    between atoms: N_5  and  C_3 
REMARK    3  A    between atoms: C_6  and  N_5 
REMARK    4  A    between atoms: N_10  and  C_6 
REMARK    5  A    between atoms: C_11  and  N_10 
ROOT
ATOM      1  C   UNL d   1      29.140  17.755 -24.236  0.00  0.00     0.103 A 
ATOM      2  C   UNL d   1      28.586  17.544 -23.661  0.00  0.00     0.116 A 
ATOM      3  N   UNL d   1      28.044  18.159 -23.601  0.00  0.00    -0.126 NA
ATOM      4  O   UNL d   1      28.261  18.750 -24.135  0.00  0.00    -0.211 OA
ATOM      5  C   UNL d   1      28.930  18.494 -24.518  0.00  0.00     0.131 A 
ATOM      6  C   UNL d   1      29.332  18.911 -25.097  0.00  0.00     0.029 C 
ENDROOT
BRANCH   1   7
ATOM      7  C   UNL d   1      29.775  17.294 -24.466  0.00  0.00     0.285 C 
ATOM      8  N   UNL d   1      30.536  17.456 -24.219  0.00  0.00    -0.179 NA
ATOM      9  O   UNL d   1      29.642  16.646 -24.961  0.00  0.00    -0.265 OA
BRANCH   8  10
ATOM     10  C   UNL d   1      31.171  16.995 -24.449  0.00  0.00     0.224 C 
ATOM     11  S   UNL d   1      31.078  16.469 -25.080  0.00  0.00    -0.037 SA
BRANCH  10  12
ATOM     12  N   UNL d   1      31.895  17.045 -24.066  0.00  0.00    -0.215 NA
BRANCH  12  13
ATOM     13  C   UNL d   1      32.311  17.735 -24.091  0.00  0.00     0.111 A 
ATOM     14  C   UNL d   1      32.520  18.116 -23.390  0.00  0.00     0.158 A 
ATOM     15  F   UNL d   1      32.304  17.790 -22.664  0.00  0.00    -0.203 F 
ATOM     16  C   UNL d   1      32.947  18.824 -23.414  0.00  0.00     0.031 A 
ATOM     17  C   UNL d   1      33.164  19.151 -24.136  0.00  0.00     0.002 A 
ATOM     18  C   UNL d   1      32.955  18.770 -24.841  0.00  0.00     0.002 A 
ATOM     19  C   UNL d   1      32.528  18.061 -24.816  0.00  0.00     0.021 A 
ENDBRANCH  12  13
ENDBRANCH  10  12
ENDBRANCH   8  10
ENDBRANCH   1   7
BRANCH   2  20
ATOM     20  C   UNL d   1      28.577  16.846 -23.227  0.00  0.00     0.031 A 
ATOM     21  C   UNL d   1      28.013  16.272 -23.384  0.00  0.00     0.059 A 
ATOM     22 CL   UNL d   1      27.456  16.397 -23.974  0.00  0.00    -0.082 Cl
ATOM     23  C   UNL d   1      28.008  15.581 -22.951  0.00  0.00     0.011 A 
ATOM     24  C   UNL d   1      28.568  15.453 -22.355  0.00  0.00     0.001 A 
ATOM     25  C   UNL d   1      29.131  16.033 -22.204  0.00  0.00     0.000 A 
ATOM     26  C   UNL d   1      29.145  16.737 -22.637  0.00  0.00     0.002 A 
ENDBRANCH   2  20
TORSDOF 5
ENDMDL
