MODEL 1
REMARK VINA RESULT:      44.4      0.000      0.000
REMARK  5 active torsions:
REMARK  status: ('A' for Active; 'I' for Inactive)
REMARK       I    between atoms: C_3  and  N_1 
REMARK    1  A    between atoms: S_7  and  C_2 
REMARK    2  A    between atoms: C_6  and  C_3 
REMARK    3  A    between atoms: N_4  and  C_8 
REMARK    4  A    between atoms: C_17  and  S_7 
REMARK    5  A    between atoms: C_18  and  C_17 
ROOT
ATOM      1  N   UNL d   1      14.379  12.900  -2.140  0.00  0.00    -0.251 N 
ATOM      2  C   UNL d   1      14.834  13.198  -1.515  0.00  0.00     0.182 A 
ATOM      3  C   UNL d   1      14.126  13.320  -2.804  0.00  0.00     0.266 C 
ATOM      4  N   UNL d   1      14.953  12.588  -0.979  0.00  0.00    -0.219 NA
ATOM      5  O   UNL d   1      14.324  14.117  -2.893  0.00  0.00    -0.267 OA
ATOM      6  C   UNL d   1      14.219  12.098  -1.983  0.00  0.00     0.106 A 
ATOM      7  C   UNL d   1      14.578  11.909  -1.260  0.00  0.00     0.120 A 
ENDROOT
BRANCH   2   8
ATOM      8  S   UNL d   1      15.111  13.971  -1.454  0.00  0.00    -0.049 SA
BRANCH   8   9
ATOM      9  C   UNL d   1      14.967  14.403  -0.775  0.00  0.00     0.038 C 
BRANCH   9  10
ATOM     10  C   UNL d   1      15.159  15.200  -0.745  0.00  0.00     0.007 A 
ATOM     11  C   UNL d   1      15.054  15.676  -1.418  0.00  0.00     0.002 A 
ATOM     12  C   UNL d   1      15.248  16.480  -1.386  0.00  0.00     0.024 A 
ATOM     13  C   UNL d   1      15.543  16.800  -0.690  0.00  0.00     0.127 A 
ATOM     14  C   UNL d   1      15.648  16.334  -0.022  0.00  0.00     0.024 A 
ATOM     15  C   UNL d   1      15.455  15.533  -0.053  0.00  0.00     0.002 A 
BRANCH  13  16
ATOM     16  N   UNL d   1      15.735  17.606  -0.665  0.00  0.00    -0.114 N 
ATOM     17  O   UNL d   1      16.518  17.860  -0.842  0.00  0.00    -0.532 OA
ATOM     18  O   UNL d   1      15.161  18.176  -0.467  0.00  0.00    -0.532 OA
ENDBRANCH  13  16
ENDBRANCH   9  10
ENDBRANCH   8   9
ENDBRANCH   2   8
BRANCH   3  19
ATOM     19  C   UNL d   1      13.670  12.941  -3.386  0.00  0.00     0.057 A 
ATOM     20  C   UNL d   1      13.461  13.355  -4.074  0.00  0.00     0.005 A 
ATOM     21  C   UNL d   1      13.009  12.968  -4.643  0.00  0.00     0.000 A 
ATOM     22  C   UNL d   1      12.798  13.379  -5.330  0.00  0.00     0.000 C 
ATOM     23  C   UNL d   1      12.769  12.182  -4.531  0.00  0.00     0.000 A 
ATOM     24  C   UNL d   1      12.979  11.780  -3.849  0.00  0.00     0.000 A 
ATOM     25  C   UNL d   1      13.431  12.159  -3.274  0.00  0.00     0.005 A 
ENDBRANCH   3  19
TORSDOF 5
ENDMDL
