MODEL 1
REMARK VINA RESULT:      -4.7      0.000      0.000
REMARK  4 active torsions:
REMARK  status: ('A' for Active; 'I' for Inactive)
REMARK    1  A    between atoms: C_2  and  S_1 
REMARK    2  A    between atoms: N_7  and  S_1 
REMARK    3  A    between atoms: C_3  and  C_12 
REMARK    4  A    between atoms: C_15  and  N_7 
ROOT
ATOM      1  C   UNL d   1     -41.607-122.374 -52.613  0.00  0.00     0.024 A 
ATOM      2  C   UNL d   1     -41.283-122.557 -50.996  0.00  0.00     0.094 A 
ATOM      3  C   UNL d   1     -41.763-121.768 -52.077  0.00  0.00     0.004 A 
ATOM      4  C   UNL d   1     -41.284-123.084 -52.338  0.00  0.00     0.004 A 
ATOM      5  C   UNL d   1     -41.603-121.858 -51.281  0.00  0.00     0.020 A 
ATOM      6  C   UNL d   1     -41.123-123.179 -51.539  0.00  0.00     0.020 A 
ENDROOT
BRANCH   2   7
ATOM      7  N   UNL d   1     -41.123-122.651 -50.202  0.00  0.00    -0.158 NA
BRANCH   7   8
ATOM      8  S   UNL d   1     -41.708-122.949 -49.694  0.00  0.00     0.287 S 
ATOM      9  O   UNL d   1     -42.067-122.207 -49.669  0.00  0.00    -0.198 OA
ATOM     10  O   UNL d   1     -41.350-123.690 -49.719  0.00  0.00    -0.198 OA
BRANCH   8  11
ATOM     11  C   UNL d   1     -42.292-123.238 -49.191  0.00  0.00     0.135 A 
ATOM     12  C   UNL d   1     -43.058-123.358 -49.457  0.00  0.00     0.045 A 
ATOM     13  C   UNL d   1     -43.637-123.646 -48.954  0.00  0.00     0.141 A 
ATOM     14  F   UNL d   1     -44.404-123.765 -49.227  0.00  0.00    -0.204 F 
ATOM     15  C   UNL d   1     -43.447-123.817 -48.170  0.00  0.00     0.032 A 
ATOM     16  C   UNL d   1     -42.678-123.700 -47.888  0.00  0.00     0.033 A 
ATOM     17  C   UNL d   1     -42.102-123.408 -48.407  0.00  0.00     0.152 A 
ATOM     18  F   UNL d   1     -41.329-123.290 -48.125  0.00  0.00    -0.203 F 
ENDBRANCH   8  11
ENDBRANCH   7   8
ENDBRANCH   2   7
BRANCH   1  19
ATOM     19  C   UNL d   1     -41.768-122.283 -53.417  0.00  0.00     0.112 A 
ATOM     20  S   UNL d   1     -42.513-122.181 -53.744  0.00  0.00    -0.047 SA
ATOM     21  C   UNL d   1     -42.426-122.110 -54.576  0.00  0.00     0.130 A 
ATOM     22  N   UNL d   1     -42.971-122.001 -55.183  0.00  0.00    -0.236 NA
ATOM     23  C   UNL d   1     -41.612-122.172 -54.745  0.00  0.00     0.106 A 
ATOM     24  C   UNL d   1     -42.703-121.953 -55.965  0.00  0.00     0.100 A 
ATOM     25  C   UNL d   1     -41.894-122.013 -56.138  0.00  0.00     0.022 A 
ATOM     26  C   UNL d   1     -41.353-122.122 -55.529  0.00  0.00     0.023 A 
ATOM     27  N   UNL d   1     -41.206-122.279 -54.024  0.00  0.00    -0.237 NA
ENDBRANCH   1  19
TORSDOF 4
ENDMDL
