MODEL 1
REMARK VINA RESULT:      -1.8      0.000      0.000
REMARK  8 active torsions:
REMARK  status: ('A' for Active; 'I' for Inactive)
REMARK    1  A    between atoms: C_9  and  N_1 
REMARK    2  A    between atoms: S_10  and  C_6 
REMARK    3  A    between atoms: C_19  and  S_10 
REMARK    4  A    between atoms: C_12  and  C_19 
REMARK       I    between atoms: N_14  and  C_12 
REMARK    5  A    between atoms: C_13  and  C_20 
REMARK    6  A    between atoms: O_24  and  C_13 
REMARK    7  A    between atoms: C_20  and  N_14 
REMARK    8  A    between atoms: C_26  and  O_24 
ROOT
ATOM      1  N   UNL d   1      32.600  22.697 -19.855  0.00  0.00    -0.212 N 
ATOM      2  C   UNL d   1      32.820  21.930 -20.051  0.00  0.00     0.169 A 
ATOM      3  N   UNL d   1      32.428  23.103 -20.534  0.00  0.00    -0.162 NA
ATOM      4  C   UNL d   1      32.782  21.863 -20.872  0.00  0.00     0.081 A 
ATOM      5  C   UNL d   1      32.540  22.588 -21.174  0.00  0.00     0.126 A 
ATOM      6  C   UNL d   1      32.974  21.151 -21.236  0.00  0.00     0.117 A 
ATOM      7  N   UNL d   1      33.048  21.286 -19.593  0.00  0.00    -0.205 NA
ATOM      8  N   UNL d   1      33.204  20.503 -20.779  0.00  0.00    -0.217 NA
ATOM      9  C   UNL d   1      33.241  20.571 -19.958  0.00  0.00     0.201 A 
ENDROOT
BRANCH   6  10
ATOM     10  S   UNL d   1      32.937  21.084 -22.057  0.00  0.00    -0.062 SA
BRANCH  10  11
ATOM     11  C   UNL d   1      33.016  20.353 -22.410  0.00  0.00     0.099 C 
BRANCH  11  12
ATOM     12  C   UNL d   1      33.115  20.298 -23.228  0.00  0.00     0.286 C 
ATOM     13  N   UNL d   1      33.106  19.559 -23.596  0.00  0.00    -0.200 NA
ATOM     14  O   UNL d   1      33.224  20.982 -23.677  0.00  0.00    -0.265 OA
BRANCH  13  15
ATOM     15  C   UNL d   1      32.997  18.875 -23.146  0.00  0.00     0.171 C 
BRANCH  15  16
ATOM     16  C   UNL d   1      32.835  18.157 -23.520  0.00  0.00     0.320 C 
ATOM     17  O   UNL d   1      32.976  18.072 -24.329  0.00  0.00    -0.257 OA
BRANCH  16  18
ATOM     18  O   UNL d   1      32.533  17.524 -23.085  0.00  0.00    -0.270 OA
BRANCH  18  19
ATOM     19  C   UNL d   1      32.862  16.772 -23.169  0.00  0.00     0.126 C 
ATOM     20  C   UNL d   1      32.372  16.111 -23.221  0.00  0.00     0.029 C 
ENDBRANCH  18  19
ENDBRANCH  16  18
ENDBRANCH  15  16
ENDBRANCH  13  15
ENDBRANCH  11  12
ENDBRANCH  10  11
ENDBRANCH   6  10
BRANCH   1  21
ATOM     21  C   UNL d   1      32.583  22.934 -19.059  0.00  0.00     0.085 A 
ATOM     22  C   UNL d   1      31.907  23.283 -18.749  0.00  0.00     0.020 A 
ATOM     23  C   UNL d   1      31.888  23.517 -17.965  0.00  0.00     0.013 A 
ATOM     24  C   UNL d   1      32.548  23.405 -17.480  0.00  0.00     0.058 A 
ATOM     25  C   UNL d   1      33.230  23.050 -17.805  0.00  0.00     0.013 A 
ATOM     26 CL   UNL d   1      32.533  23.642 -16.684  0.00  0.00    -0.082 Cl
ATOM     27  C   UNL d   1      33.241  22.819 -18.587  0.00  0.00     0.020 A 
ENDBRANCH   1  21
TORSDOF 8
ENDMDL
MODEL 2
REMARK VINA RESULT:      -0.4      4.063      7.106
REMARK  8 active torsions:
REMARK  status: ('A' for Active; 'I' for Inactive)
REMARK    1  A    between atoms: C_9  and  N_1 
REMARK    2  A    between atoms: S_10  and  C_6 
REMARK    3  A    between atoms: C_19  and  S_10 
REMARK    4  A    between atoms: C_12  and  C_19 
REMARK       I    between atoms: N_14  and  C_12 
REMARK    5  A    between atoms: C_13  and  C_20 
REMARK    6  A    between atoms: O_24  and  C_13 
REMARK    7  A    between atoms: C_20  and  N_14 
REMARK    8  A    between atoms: C_26  and  O_24 
ROOT
ATOM      1  N   UNL d   1      29.286  16.007 -23.636  0.00  0.00    -0.212 N 
ATOM      2  C   UNL d   1      29.551  16.648 -24.075  0.00  0.00     0.169 A 
ATOM      3  N   UNL d   1      29.926  15.605 -23.345  0.00  0.00    -0.162 NA
ATOM      4  C   UNL d   1      30.376  16.640 -24.055  0.00  0.00     0.081 A 
ATOM      5  C   UNL d   1      30.610  15.994 -23.603  0.00  0.00     0.126 A 
ATOM      6  C   UNL d   1      30.803  17.220 -24.449  0.00  0.00     0.117 A 
ATOM      7  N   UNL d   1      29.154  17.237 -24.490  0.00  0.00    -0.205 NA
ATOM      8  N   UNL d   1      30.407  17.812 -24.867  0.00  0.00    -0.217 NA
ATOM      9  C   UNL d   1      29.583  17.820 -24.887  0.00  0.00     0.201 A 
ENDROOT
BRANCH   6  10
ATOM     10  S   UNL d   1      31.628  17.212 -24.429  0.00  0.00    -0.062 SA
BRANCH  10  11
ATOM     11  C   UNL d   1      32.029  17.726 -23.940  0.00  0.00     0.099 C 
BRANCH  11  12
ATOM     12  C   UNL d   1      32.779  17.997 -24.151  0.00  0.00     0.286 C 
ATOM     13  N   UNL d   1      33.189  18.511 -23.652  0.00  0.00    -0.200 NA
ATOM     14  O   UNL d   1      33.121  17.753 -24.862  0.00  0.00    -0.265 OA
BRANCH  13  15
ATOM     15  C   UNL d   1      32.847  18.755 -22.941  0.00  0.00     0.171 C 
BRANCH  15  16
ATOM     16  C   UNL d   1      32.961  19.527 -22.672  0.00  0.00     0.320 C 
ATOM     17  O   UNL d   1      33.238  20.108 -23.189  0.00  0.00    -0.257 OA
BRANCH  16  18
ATOM     18  O   UNL d   1      32.798  19.719 -21.886  0.00  0.00    -0.270 OA
BRANCH  18  19
ATOM     19  C   UNL d   1      32.775  20.510 -21.651  0.00  0.00     0.126 C 
ATOM     20  C   UNL d   1      33.074  20.729 -20.914  0.00  0.00     0.029 C 
ENDBRANCH  18  19
ENDBRANCH  16  18
ENDBRANCH  15  16
ENDBRANCH  13  15
ENDBRANCH  11  12
ENDBRANCH  10  11
ENDBRANCH   6  10
BRANCH   1  21
ATOM     21  C   UNL d   1      28.471  15.868 -23.554  0.00  0.00     0.085 A 
ATOM     22  C   UNL d   1      28.101  16.010 -22.833  0.00  0.00     0.020 A 
ATOM     23  C   UNL d   1      27.299  15.874 -22.750  0.00  0.00     0.013 A 
ATOM     24  C   UNL d   1      26.854  15.593 -23.388  0.00  0.00     0.058 A 
ATOM     25  C   UNL d   1      27.240  15.453 -24.116  0.00  0.00     0.013 A 
ATOM     26 CL   UNL d   1      26.040  15.454 -23.307  0.00  0.00    -0.082 Cl
ATOM     27  C   UNL d   1      28.040  15.591 -24.190  0.00  0.00     0.020 A 
ENDBRANCH   1  21
TORSDOF 8
ENDMDL
