MODEL 1
REMARK VINA RESULT:      -3.1      0.000      0.000
REMARK  4 active torsions:
REMARK  status: ('A' for Active; 'I' for Inactive)
REMARK    1  A    between atoms: C_9  and  N_2 
REMARK    2  A    between atoms: C_7  and  O_10 
REMARK    3  A    between atoms: C_11  and  C_9 
REMARK    4  A    between atoms: O_10  and  C_11 
ROOT
ATOM      1  C   UNL d   1      30.881  15.867 -23.513  0.00  0.00     0.296 A 
ATOM      2  N   UNL d   1      30.836  16.480 -24.059  0.00  0.00    -0.266 N 
ATOM      3  S   UNL d   1      30.099  15.670 -23.288  0.00  0.00    -0.025 SA
ATOM      4  C   UNL d   1      30.036  16.666 -24.175  0.00  0.00     0.074 A 
ATOM      5  C   UNL d   1      29.584  16.169 -23.702  0.00  0.00     0.050 A 
ATOM      6  O   UNL d   1      31.566  15.509 -23.235  0.00  0.00    -0.259 OA
ATOM      7  C   UNL d   1      29.671  17.230 -24.657  0.00  0.00     0.018 A 
ATOM      8  C   UNL d   1      28.757  16.226 -23.701  0.00  0.00     0.008 A 
ATOM      9  C   UNL d   1      28.846  17.289 -24.658  0.00  0.00     0.002 A 
ATOM     10  C   UNL d   1      28.394  16.793 -24.185  0.00  0.00     0.001 A 
ENDROOT
BRANCH   2  11
ATOM     11  C   UNL d   1      31.475  16.848 -24.429  0.00  0.00     0.110 C 
BRANCH  11  12
ATOM     12  C   UNL d   1      32.010  17.292 -23.989  0.00  0.00     0.142 C 
BRANCH  12  13
ATOM     13  O   UNL d   1      32.454  17.897 -24.341  0.00  0.00    -0.304 OA
BRANCH  13  14
ATOM     14  C   UNL d   1      32.717  18.536 -23.891  0.00  0.00     0.100 A 
ATOM     15  C   UNL d   1      32.977  19.224 -24.267  0.00  0.00     0.023 A 
ATOM     16  C   UNL d   1      32.973  19.271 -25.092  0.00  0.00     0.002 C 
ATOM     17  C   UNL d   1      33.238  19.859 -23.819  0.00  0.00     0.002 A 
ATOM     18  C   UNL d   1      33.240  19.807 -22.995  0.00  0.00     0.000 A 
ATOM     19  C   UNL d   1      32.979  19.115 -22.623  0.00  0.00     0.002 A 
ATOM     20  C   UNL d   1      32.719  18.483 -23.079  0.00  0.00     0.025 A 
ENDBRANCH  13  14
ENDBRANCH  12  13
ENDBRANCH  11  12
ENDBRANCH   2  11
TORSDOF 4
ENDMDL
MODEL 2
REMARK VINA RESULT:      -3.1      2.092      4.659
REMARK  4 active torsions:
REMARK  status: ('A' for Active; 'I' for Inactive)
REMARK    1  A    between atoms: C_9  and  N_2 
REMARK    2  A    between atoms: C_7  and  O_10 
REMARK    3  A    between atoms: C_11  and  C_9 
REMARK    4  A    between atoms: O_10  and  C_11 
ROOT
ATOM      1  C   UNL d   1      33.238  20.472 -23.670  0.00  0.00     0.296 A 
ATOM      2  N   UNL d   1      33.239  19.818 -23.171  0.00  0.00    -0.266 N 
ATOM      3  S   UNL d   1      33.237  21.158 -23.189  0.00  0.00    -0.025 SA
ATOM      4  C   UNL d   1      33.238  20.090 -22.388  0.00  0.00     0.074 A 
ATOM      5  C   UNL d   1      33.237  20.911 -22.398  0.00  0.00     0.050 A 
ATOM      6  O   UNL d   1      33.239  20.461 -24.491  0.00  0.00    -0.259 OA
ATOM      7  C   UNL d   1      33.239  19.681 -21.669  0.00  0.00     0.018 A 
ATOM      8  C   UNL d   1      33.235  21.342 -21.690  0.00  0.00     0.008 A 
ATOM      9  C   UNL d   1      33.237  20.108 -20.960  0.00  0.00     0.002 A 
ATOM     10  C   UNL d   1      33.236  20.929 -20.971  0.00  0.00     0.001 A 
ENDROOT
BRANCH   2  11
ATOM     11  C   UNL d   1      33.241  19.028 -23.408  0.00  0.00     0.110 C 
BRANCH  11  12
ATOM     12  C   UNL d   1      32.534  18.644 -23.580  0.00  0.00     0.142 C 
BRANCH  12  13
ATOM     13  O   UNL d   1      32.522  17.840 -23.780  0.00  0.00    -0.304 OA
BRANCH  13  14
ATOM     14  C   UNL d   1      31.807  17.458 -23.926  0.00  0.00     0.100 A 
ATOM     15  C   UNL d   1      31.688  16.688 -23.653  0.00  0.00     0.023 A 
ATOM     16  C   UNL d   1      32.287  16.301 -23.233  0.00  0.00     0.002 C 
ATOM     17  C   UNL d   1      30.977  16.308 -23.798  0.00  0.00     0.002 A 
ATOM     18  C   UNL d   1      30.382  16.698 -24.217  0.00  0.00     0.000 A 
ATOM     19  C   UNL d   1      30.504  17.470 -24.490  0.00  0.00     0.002 A 
ATOM     20  C   UNL d   1      31.221  17.843 -24.340  0.00  0.00     0.025 A 
ENDBRANCH  13  14
ENDBRANCH  12  13
ENDBRANCH  11  12
ENDBRANCH   2  11
TORSDOF 4
ENDMDL
MODEL 3
REMARK VINA RESULT:      -3.0      1.195      1.703
REMARK  4 active torsions:
REMARK  status: ('A' for Active; 'I' for Inactive)
REMARK    1  A    between atoms: C_9  and  N_2 
REMARK    2  A    between atoms: C_7  and  O_10 
REMARK    3  A    between atoms: C_11  and  C_9 
REMARK    4  A    between atoms: O_10  and  C_11 
ROOT
ATOM      1  C   UNL d   1      32.224  16.419 -23.160  0.00  0.00     0.296 A 
ATOM      2  N   UNL d   1      32.204  17.120 -23.590  0.00  0.00    -0.266 N 
ATOM      3  S   UNL d   1      31.524  15.994 -23.335  0.00  0.00    -0.025 SA
ATOM      4  C   UNL d   1      31.500  17.134 -24.028  0.00  0.00     0.074 A 
ATOM      5  C   UNL d   1      31.083  16.445 -23.872  0.00  0.00     0.050 A 
ATOM      6  O   UNL d   1      32.820  16.175 -22.651  0.00  0.00    -0.259 OA
ATOM      7  C   UNL d   1      31.195  17.698 -24.551  0.00  0.00     0.018 A 
ATOM      8  C   UNL d   1      30.351  16.303 -24.235  0.00  0.00     0.008 A 
ATOM      9  C   UNL d   1      30.465  17.560 -24.915  0.00  0.00     0.002 A 
ATOM     10  C   UNL d   1      30.048  16.870 -24.759  0.00  0.00     0.001 A 
ENDROOT
BRANCH   2  11
ATOM     11  C   UNL d   1      32.783  17.708 -23.586  0.00  0.00     0.110 C 
BRANCH  11  12
ATOM     12  C   UNL d   1      32.734  18.336 -23.058  0.00  0.00     0.142 C 
BRANCH  12  13
ATOM     13  O   UNL d   1      33.241  18.988 -23.121  0.00  0.00    -0.304 OA
BRANCH  13  14
ATOM     14  C   UNL d   1      33.237  19.577 -22.544  0.00  0.00     0.100 A 
ATOM     15  C   UNL d   1      33.235  20.372 -22.767  0.00  0.00     0.023 A 
ATOM     16  C   UNL d   1      33.238  20.576 -23.568  0.00  0.00     0.002 C 
ATOM     17  C   UNL d   1      33.231  20.957 -22.193  0.00  0.00     0.002 A 
ATOM     18  C   UNL d   1      33.229  20.748 -21.395  0.00  0.00     0.000 A 
ATOM     19  C   UNL d   1      33.230  19.949 -21.175  0.00  0.00     0.002 A 
ATOM     20  C   UNL d   1      33.234  19.369 -21.757  0.00  0.00     0.025 A 
ENDBRANCH  13  14
ENDBRANCH  12  13
ENDBRANCH  11  12
ENDBRANCH   2  11
TORSDOF 4
ENDMDL
MODEL 4
REMARK VINA RESULT:      -2.9      2.200      3.487
REMARK  4 active torsions:
REMARK  status: ('A' for Active; 'I' for Inactive)
REMARK    1  A    between atoms: C_9  and  N_2 
REMARK    2  A    between atoms: C_7  and  O_10 
REMARK    3  A    between atoms: C_11  and  C_9 
REMARK    4  A    between atoms: O_10  and  C_11 
ROOT
ATOM      1  C   UNL d   1      32.867  19.177 -24.579  0.00  0.00     0.296 A 
ATOM      2  N   UNL d   1      32.861  18.824 -23.837  0.00  0.00    -0.266 N 
ATOM      3  S   UNL d   1      32.420  18.691 -25.095  0.00  0.00    -0.025 SA
ATOM      4  C   UNL d   1      32.417  18.125 -23.886  0.00  0.00     0.074 A 
ATOM      5  C   UNL d   1      32.147  18.044 -24.657  0.00  0.00     0.050 A 
ATOM      6  O   UNL d   1      33.240  19.879 -24.784  0.00  0.00    -0.259 OA
ATOM      7  C   UNL d   1      32.229  17.557 -23.315  0.00  0.00     0.018 A 
ATOM      8  C   UNL d   1      31.683  17.391 -24.875  0.00  0.00     0.008 A 
ATOM      9  C   UNL d   1      31.767  16.905 -23.529  0.00  0.00     0.002 A 
ATOM     10  C   UNL d   1      31.497  16.823 -24.300  0.00  0.00     0.001 A 
ENDROOT
BRANCH   2  11
ATOM     11  C   UNL d   1      33.232  19.114 -23.159  0.00  0.00     0.110 C 
BRANCH  11  12
ATOM     12  C   UNL d   1      32.992  19.828 -22.827  0.00  0.00     0.142 C 
BRANCH  12  13
ATOM     13  O   UNL d   1      33.137  19.997 -22.030  0.00  0.00    -0.304 OA
BRANCH  13  14
ATOM     14  C   UNL d   1      33.062  20.769 -21.748  0.00  0.00     0.100 A 
ATOM     15  C   UNL d   1      33.105  20.916 -20.936  0.00  0.00     0.023 A 
ATOM     16  C   UNL d   1      33.224  20.291 -20.408  0.00  0.00     0.002 C 
ATOM     17  C   UNL d   1      33.030  21.683 -20.657  0.00  0.00     0.002 A 
ATOM     18  C   UNL d   1      32.912  22.303 -21.188  0.00  0.00     0.000 A 
ATOM     19  C   UNL d   1      32.869  22.151 -22.000  0.00  0.00     0.002 A 
ATOM     20  C   UNL d   1      32.945  21.380 -22.273  0.00  0.00     0.025 A 
ENDBRANCH  13  14
ENDBRANCH  12  13
ENDBRANCH  11  12
ENDBRANCH   2  11
TORSDOF 4
ENDMDL
MODEL 5
REMARK VINA RESULT:      -2.8      3.987      6.096
REMARK  4 active torsions:
REMARK  status: ('A' for Active; 'I' for Inactive)
REMARK    1  A    between atoms: C_9  and  N_2 
REMARK    2  A    between atoms: C_7  and  O_10 
REMARK    3  A    between atoms: C_11  and  C_9 
REMARK    4  A    between atoms: O_10  and  C_11 
ROOT
ATOM      1  C   UNL d   1      32.186  23.169 -21.927  0.00  0.00     0.296 A 
ATOM      2  N   UNL d   1      32.759  22.678 -21.602  0.00  0.00    -0.266 N 
ATOM      3  S   UNL d   1      31.838  23.603 -21.300  0.00  0.00    -0.025 SA
ATOM      4  C   UNL d   1      32.771  22.803 -20.782  0.00  0.00     0.074 A 
ATOM      5  C   UNL d   1      32.207  23.370 -20.597  0.00  0.00     0.050 A 
ATOM      6  O   UNL d   1      31.985  23.228 -22.721  0.00  0.00    -0.259 OA
ATOM      7  C   UNL d   1      33.233  22.463 -20.185  0.00  0.00     0.018 A 
ATOM      8  C   UNL d   1      32.091  23.610 -19.812  0.00  0.00     0.008 A 
ATOM      9  C   UNL d   1      33.120  22.700 -19.401  0.00  0.00     0.002 A 
ATOM     10  C   UNL d   1      32.555  23.267 -19.216  0.00  0.00     0.001 A 
ENDROOT
BRANCH   2  11
ATOM     11  C   UNL d   1      33.240  22.153 -22.018  0.00  0.00     0.110 C 
BRANCH  11  12
ATOM     12  C   UNL d   1      32.999  21.375 -22.138  0.00  0.00     0.142 C 
BRANCH  12  13
ATOM     13  O   UNL d   1      33.240  20.953 -22.808  0.00  0.00    -0.304 OA
BRANCH  13  14
ATOM     14  C   UNL d   1      33.222  20.129 -22.810  0.00  0.00     0.100 A 
ATOM     15  C   UNL d   1      33.195  19.719 -23.526  0.00  0.00     0.023 A 
ATOM     16  C   UNL d   1      33.186  20.135 -24.240  0.00  0.00     0.002 C 
ATOM     17  C   UNL d   1      33.178  18.899 -23.527  0.00  0.00     0.002 A 
ATOM     18  C   UNL d   1      33.188  18.488 -22.811  0.00  0.00     0.000 A 
ATOM     19  C   UNL d   1      33.214  18.903 -22.095  0.00  0.00     0.002 A 
ATOM     20  C   UNL d   1      33.232  19.725 -22.103  0.00  0.00     0.025 A 
ENDBRANCH  13  14
ENDBRANCH  12  13
ENDBRANCH  11  12
ENDBRANCH   2  11
TORSDOF 4
ENDMDL
MODEL 6
REMARK VINA RESULT:      -2.6      1.304      2.034
REMARK  4 active torsions:
REMARK  status: ('A' for Active; 'I' for Inactive)
REMARK    1  A    between atoms: C_9  and  N_2 
REMARK    2  A    between atoms: C_7  and  O_10 
REMARK    3  A    between atoms: C_11  and  C_9 
REMARK    4  A    between atoms: O_10  and  C_11 
ROOT
ATOM      1  C   UNL d   1      28.898  17.718 -24.544  0.00  0.00     0.296 A 
ATOM      2  N   UNL d   1      29.447  17.133 -24.365  0.00  0.00    -0.266 N 
ATOM      3  S   UNL d   1      28.187  17.531 -24.140  0.00  0.00    -0.025 SA
ATOM      4  C   UNL d   1      29.086  16.586 -23.856  0.00  0.00     0.074 A 
ATOM      5  C   UNL d   1      28.314  16.830 -23.719  0.00  0.00     0.050 A 
ATOM      6  O   UNL d   1      29.017  18.369 -25.029  0.00  0.00    -0.259 OA
ATOM      7  C   UNL d   1      29.375  15.895 -23.504  0.00  0.00     0.018 A 
ATOM      8  C   UNL d   1      27.814  16.388 -23.226  0.00  0.00     0.008 A 
ATOM      9  C   UNL d   1      28.878  15.453 -23.013  0.00  0.00     0.002 A 
ATOM     10  C   UNL d   1      28.107  15.696 -22.875  0.00  0.00     0.001 A 
ENDROOT
BRANCH   2  11
ATOM     11  C   UNL d   1      30.223  17.095 -24.642  0.00  0.00     0.110 C 
BRANCH  11  12
ATOM     12  C   UNL d   1      30.807  17.571 -24.310  0.00  0.00     0.142 C 
BRANCH  12  13
ATOM     13  O   UNL d   1      31.600  17.336 -24.313  0.00  0.00    -0.304 OA
BRANCH  13  14
ATOM     14  C   UNL d   1      32.149  17.718 -23.830  0.00  0.00     0.100 A 
ATOM     15  C   UNL d   1      32.693  17.275 -23.394  0.00  0.00     0.023 A 
ATOM     16  C   UNL d   1      32.686  16.450 -23.442  0.00  0.00     0.002 C 
ATOM     17  C   UNL d   1      33.238  17.655 -22.915  0.00  0.00     0.002 A 
ATOM     18  C   UNL d   1      33.241  18.479 -22.870  0.00  0.00     0.000 A 
ATOM     19  C   UNL d   1      32.694  18.920 -23.309  0.00  0.00     0.002 A 
ATOM     20  C   UNL d   1      32.151  18.531 -23.787  0.00  0.00     0.025 A 
ENDBRANCH  13  14
ENDBRANCH  12  13
ENDBRANCH  11  12
ENDBRANCH   2  11
TORSDOF 4
ENDMDL
