MODEL 1
REMARK VINA RESULT:      -5.4      0.000      0.000
REMARK  2 active torsions:
REMARK  status: ('A' for Active; 'I' for Inactive)
REMARK    1  A    between atoms: S_2  and  N_1 
REMARK    2  A    between atoms: C_10  and  S_2 
ROOT
ATOM      1  S   UNL d   1      57.132  -0.029  31.602  0.00  0.00     0.273 S 
ATOM      2  O   UNL d   1      57.266   0.682  31.998  0.00  0.00    -0.200 OA
ATOM      3  O   UNL d   1      57.004  -0.736  31.199  0.00  0.00    -0.200 OA
ENDROOT
BRANCH   1   4
ATOM      4  N   UNL d   1      57.674   0.190  31.019  0.00  0.00    -0.207 N 
ATOM      5  C   UNL d   1      58.445   0.309  31.287  0.00  0.00     0.148 A 
ATOM      6  N   UNL d   1      59.116   0.530  30.848  0.00  0.00    -0.198 NA
ATOM      7  C   UNL d   1      59.173   0.682  30.052  0.00  0.00     0.066 A 
ATOM      8  C   UNL d   1      58.184   0.386  30.524  0.00  0.00     0.169 A 
ATOM      9  C   UNL d   1      58.584   0.656  29.476  0.00  0.00     0.066 A 
ATOM     10  N   UNL d   1      57.784   0.468  29.565  0.00  0.00    -0.198 NA
ATOM     11  C   UNL d   1      57.383   0.261  30.252  0.00  0.00     0.148 A 
ENDBRANCH   1   4
BRANCH   1  12
ATOM     12  C   UNL d   1      56.590  -0.251  32.181  0.00  0.00     0.104 A 
ATOM     13  C   UNL d   1      56.181   0.326  32.607  0.00  0.00     0.013 A 
ATOM     14  C   UNL d   1      55.639   0.104  33.186  0.00  0.00     0.001 A 
ATOM     15  C   UNL d   1      55.506  -0.695  33.342  0.00  0.00     0.000 A 
ATOM     16  C   UNL d   1      55.914  -1.272  32.917  0.00  0.00     0.001 A 
ATOM     17  C   UNL d   1      56.456  -1.050  32.337  0.00  0.00     0.013 A 
ENDBRANCH   1  12
TORSDOF 2
ENDMDL
MODEL 2
REMARK VINA RESULT:      -5.1      1.258      1.863
REMARK  2 active torsions:
REMARK  status: ('A' for Active; 'I' for Inactive)
REMARK    1  A    between atoms: S_2  and  N_1 
REMARK    2  A    between atoms: C_10  and  S_2 
ROOT
ATOM      1  S   UNL d   1      56.293   0.184  32.843  0.00  0.00     0.273 S 
ATOM      2  O   UNL d   1      55.802   0.661  32.382  0.00  0.00    -0.200 OA
ATOM      3  O   UNL d   1      56.788  -0.294  33.297  0.00  0.00    -0.200 OA
ENDROOT
BRANCH   1   4
ATOM      4  N   UNL d   1      56.762   0.022  32.184  0.00  0.00    -0.207 N 
ATOM      5  C   UNL d   1      57.257   0.638  31.947  0.00  0.00     0.148 A 
ATOM      6  N   UNL d   1      57.793   0.655  31.312  0.00  0.00    -0.198 NA
ATOM      7  C   UNL d   1      57.957   0.070  30.772  0.00  0.00     0.066 A 
ATOM      8  C   UNL d   1      57.194  -0.091  31.597  0.00  0.00     0.169 A 
ATOM      9  C   UNL d   1      57.637  -0.687  30.715  0.00  0.00     0.066 A 
ATOM     10  N   UNL d   1      57.066  -1.043  31.195  0.00  0.00    -0.198 NA
ATOM     11  C   UNL d   1      56.679  -0.725  31.847  0.00  0.00     0.148 A 
ENDBRANCH   1   4
BRANCH   1  12
ATOM     12  C   UNL d   1      55.827   0.344  33.504  0.00  0.00     0.104 A 
ATOM     13  C   UNL d   1      55.005   0.337  33.441  0.00  0.00     0.013 A 
ATOM     14  C   UNL d   1      54.539   0.497  34.102  0.00  0.00     0.001 A 
ATOM     15  C   UNL d   1      54.895   0.663  34.827  0.00  0.00     0.000 A 
ATOM     16  C   UNL d   1      55.718   0.670  34.891  0.00  0.00     0.001 A 
ATOM     17  C   UNL d   1      56.184   0.510  34.230  0.00  0.00     0.013 A 
ENDBRANCH   1  12
TORSDOF 2
ENDMDL
MODEL 3
REMARK VINA RESULT:      -4.8      1.086      3.393
REMARK  2 active torsions:
REMARK  status: ('A' for Active; 'I' for Inactive)
REMARK    1  A    between atoms: S_2  and  N_1 
REMARK    2  A    between atoms: C_10  and  S_2 
ROOT
ATOM      1  S   UNL d   1      57.331   0.159  31.543  0.00  0.00     0.273 S 
ATOM      2  O   UNL d   1      56.842  -0.090  30.926  0.00  0.00    -0.200 OA
ATOM      3  O   UNL d   1      57.813   0.406  32.164  0.00  0.00    -0.200 OA
ENDROOT
BRANCH   1   4
ATOM      4  N   UNL d   1      56.738  -0.014  32.089  0.00  0.00    -0.207 N 
ATOM      5  C   UNL d   1      56.632  -0.817  32.247  0.00  0.00     0.148 A 
ATOM      6  N   UNL d   1      56.087  -1.175  32.764  0.00  0.00    -0.198 NA
ATOM      7  C   UNL d   1      55.530  -0.820  33.237  0.00  0.00     0.066 A 
ATOM      8  C   UNL d   1      56.215  -0.204  32.573  0.00  0.00     0.169 A 
ATOM      9  C   UNL d   1      55.360  -0.019  33.326  0.00  0.00     0.066 A 
ATOM     10  N   UNL d   1      55.717   0.628  32.955  0.00  0.00    -0.198 NA
ATOM     11  C   UNL d   1      56.329   0.627  32.406  0.00  0.00     0.148 A 
ENDBRANCH   1   4
BRANCH   1  12
ATOM     12  C   UNL d   1      57.926   0.333  31.000  0.00  0.00     0.104 A 
ATOM     13  C   UNL d   1      58.688   0.508  31.264  0.00  0.00     0.013 A 
ATOM     14  C   UNL d   1      59.283   0.682  30.721  0.00  0.00     0.001 A 
ATOM     15  C   UNL d   1      59.117   0.682  29.914  0.00  0.00     0.000 A 
ATOM     16  C   UNL d   1      58.355   0.507  29.648  0.00  0.00     0.001 A 
ATOM     17  C   UNL d   1      57.760   0.333  30.191  0.00  0.00     0.013 A 
ENDBRANCH   1  12
TORSDOF 2
ENDMDL
