MODEL 1
REMARK VINA RESULT:       0.3      0.000      0.000
REMARK  4 active torsions:
REMARK  status: ('A' for Active; 'I' for Inactive)
REMARK    1  A    between atoms: C_10  and  C_3 
REMARK    2  A    between atoms: N_11  and  C_4 
REMARK    3  A    between atoms: C_14  and  N_11 
REMARK    4  A    between atoms: C_15  and  C_14 
ROOT
ATOM      1  C   UNL d   1     -41.447-121.684 -52.440  0.00  0.00     0.150 A 
ATOM      2  N   UNL d   1     -41.617-122.394 -52.048  0.00  0.00    -0.275 N 
ATOM      3  C   UNL d   1     -41.290-121.010 -52.010  0.00  0.00     0.056 A 
ATOM      4  C   UNL d   1     -41.626-122.410 -51.234  0.00  0.00     0.149 A 
ATOM      5  N   UNL d   1     -41.434-121.649 -53.248  0.00  0.00    -0.227 NA
ATOM      6  C   UNL d   1     -41.302-121.036 -51.185  0.00  0.00     0.007 A 
ATOM      7  C   UNL d   1     -41.468-121.730 -50.802  0.00  0.00     0.038 A 
ATOM      8  C   UNL d   1     -41.762-123.040 -53.299  0.00  0.00     0.084 A 
ATOM      9  C   UNL d   1     -41.592-122.331 -53.686  0.00  0.00     0.099 A 
ATOM     10  C   UNL d   1     -41.145-120.359 -50.757  0.00  0.00     0.000 C 
ATOM     11  C   UNL d   1     -41.918-123.713 -53.733  0.00  0.00     0.019 A 
ATOM     12  C   UNL d   1     -41.584-122.319 -54.503  0.00  0.00     0.021 A 
ATOM     13  C   UNL d   1     -41.909-123.697 -54.545  0.00  0.00     0.002 A 
ATOM     14  C   UNL d   1     -41.740-122.991 -54.938  0.00  0.00     0.002 A 
ENDROOT
BRANCH   4  15
ATOM     15  N   UNL d   1     -41.801-123.144 -50.842  0.00  0.00    -0.225 NA
BRANCH  15  16
ATOM     16  C   UNL d   1     -41.417-123.343 -50.104  0.00  0.00     0.120 C 
BRANCH  16  17
ATOM     17  C   UNL d   1     -41.878-123.477 -49.401  0.00  0.00     0.101 A 
ATOM     18  N   UNL d   1     -41.503-123.406 -48.629  0.00  0.00    -0.242 NA
ATOM     19  C   UNL d   1     -41.965-123.540 -47.925  0.00  0.00     0.099 A 
ATOM     20  C   UNL d   1     -42.796-123.745 -47.988  0.00  0.00     0.021 A 
ATOM     21  C   UNL d   1     -43.172-123.817 -48.770  0.00  0.00     0.003 A 
ATOM     22  C   UNL d   1     -42.702-123.680 -49.467  0.00  0.00     0.021 A 
ENDBRANCH  16  17
ENDBRANCH  15  16
ENDBRANCH   4  15
BRANCH   3  23
ATOM     23  C   UNL d   1     -41.124-120.314 -52.390  0.00  0.00     0.125 C 
ATOM     24  N   UNL d   1     -41.165-119.618 -51.941  0.00  0.00    -0.146 N 
ENDBRANCH   3  23
TORSDOF 4
ENDMDL
MODEL 2
REMARK VINA RESULT:       2.8      1.338      4.526
REMARK  4 active torsions:
REMARK  status: ('A' for Active; 'I' for Inactive)
REMARK    1  A    between atoms: C_10  and  C_3 
REMARK    2  A    between atoms: N_11  and  C_4 
REMARK    3  A    between atoms: C_14  and  N_11 
REMARK    4  A    between atoms: C_15  and  C_14 
ROOT
ATOM      1  C   UNL d   1     -41.175-121.688 -51.190  0.00  0.00     0.150 A 
ATOM      2  N   UNL d   1     -41.175-121.678 -52.019  0.00  0.00    -0.275 N 
ATOM      3  C   UNL d   1     -41.188-122.399 -50.793  0.00  0.00     0.056 A 
ATOM      4  C   UNL d   1     -41.188-122.382 -52.428  0.00  0.00     0.149 A 
ATOM      5  N   UNL d   1     -41.162-120.998 -50.767  0.00  0.00    -0.227 NA
ATOM      6  C   UNL d   1     -41.201-123.107 -51.216  0.00  0.00     0.007 A 
ATOM      7  C   UNL d   1     -41.201-123.097 -52.026  0.00  0.00     0.038 A 
ATOM      8  C   UNL d   1     -41.149-120.263 -51.994  0.00  0.00     0.084 A 
ATOM      9  C   UNL d   1     -41.149-120.277 -51.169  0.00  0.00     0.099 A 
ATOM     10  C   UNL d   1     -41.214-123.817 -50.815  0.00  0.00     0.000 C 
ATOM     11  C   UNL d   1     -41.136-119.549 -52.388  0.00  0.00     0.019 A 
ATOM     12  C   UNL d   1     -41.136-119.568 -50.761  0.00  0.00     0.021 A 
ATOM     13  C   UNL d   1     -41.123-118.847 -51.980  0.00  0.00     0.002 A 
ATOM     14  C   UNL d   1     -41.123-118.854 -51.155  0.00  0.00     0.002 A 
ENDROOT
BRANCH   4  15
ATOM     15  N   UNL d   1     -41.188-122.360 -53.279  0.00  0.00    -0.225 NA
BRANCH  15  16
ATOM     16  C   UNL d   1     -41.807-122.751 -53.721  0.00  0.00     0.120 C 
BRANCH  16  17
ATOM     17  C   UNL d   1     -41.999-122.495 -54.509  0.00  0.00     0.101 A 
ATOM     18  N   UNL d   1     -42.822-122.485 -54.763  0.00  0.00    -0.242 NA
ATOM     19  C   UNL d   1     -43.015-122.229 -55.553  0.00  0.00     0.099 A 
ATOM     20  C   UNL d   1     -42.393-121.982 -56.089  0.00  0.00     0.021 A 
ATOM     21  C   UNL d   1     -41.561-121.992 -55.830  0.00  0.00     0.003 A 
ATOM     22  C   UNL d   1     -41.379-122.250 -55.039  0.00  0.00     0.021 A 
ENDBRANCH  16  17
ENDBRANCH  15  16
ENDBRANCH   4  15
BRANCH   3  23
ATOM     23  C   UNL d   1     -41.188-122.412 -49.983  0.00  0.00     0.125 C 
ATOM     24  N   UNL d   1     -41.908-122.579 -49.607  0.00  0.00    -0.146 N 
ENDBRANCH   3  23
TORSDOF 4
ENDMDL
