MODEL 1
REMARK VINA RESULT:      17.3      0.000      0.000
REMARK  2 active torsions:
REMARK  status: ('A' for Active; 'I' for Inactive)
REMARK    1  A    between atoms: C_4  and  C_2 
REMARK    2  A    between atoms: C_8  and  C_3 
ROOT
ATOM      1  S   UNL d   1      59.630  49.492  50.529  0.00  0.00    -0.081 SA
ATOM      2  C   UNL d   1      58.879  49.593  50.857  0.00  0.00     0.031 A 
ATOM      3  C   UNL d   1      60.190  49.506  51.152  0.00  0.00     0.094 A 
ATOM      4  C   UNL d   1      58.966  49.671  51.687  0.00  0.00     0.007 A 
ATOM      5  C   UNL d   1      59.778  49.616  51.861  0.00  0.00     0.013 A 
ENDROOT
BRANCH   2   6
ATOM      6  C   UNL d   1      58.170  49.614  50.449  0.00  0.00     0.025 A 
ATOM      7  C   UNL d   1      57.454  49.643  50.859  0.00  0.00     0.005 A 
ATOM      8  C   UNL d   1      56.745  49.664  50.451  0.00  0.00     0.038 A 
ATOM      9  C   UNL d   1      56.035  49.693  50.858  0.00  0.00     0.003 C 
ATOM     10  C   UNL d   1      56.747  49.656  49.623  0.00  0.00     0.184 A 
ATOM     11  N   UNL d   1      57.468  49.626  49.212  0.00  0.00    -0.224 NA
ATOM     12  N   UNL d   1      56.036  49.677  49.210  0.00  0.00    -0.127 N 
ATOM     13  C   UNL d   1      58.171  49.606  49.634  0.00  0.00     0.101 A 
ENDBRANCH   2   6
BRANCH   3  14
ATOM     14  C   UNL d   1      61.004  49.424  51.062  0.00  0.00     0.217 C 
ATOM     15  O   UNL d   1      61.300  49.043  50.384  0.00  0.00    -0.643 OA
ATOM     16  O   UNL d   1      61.519  49.706  51.618  0.00  0.00    -0.643 OA
ENDBRANCH   3  14
TORSDOF 2
ENDMDL
MODEL 2
REMARK VINA RESULT:      18.2      2.521      3.865
REMARK  2 active torsions:
REMARK  status: ('A' for Active; 'I' for Inactive)
REMARK    1  A    between atoms: C_4  and  C_2 
REMARK    2  A    between atoms: C_8  and  C_3 
ROOT
ATOM      1  S   UNL d   1      57.885  49.567  50.717  0.00  0.00    -0.081 SA
ATOM      2  C   UNL d   1      58.640  49.640  50.391  0.00  0.00     0.031 A 
ATOM      3  C   UNL d   1      57.328  49.586  50.090  0.00  0.00     0.094 A 
ATOM      4  C   UNL d   1      58.559  49.705  49.559  0.00  0.00     0.007 A 
ATOM      5  C   UNL d   1      57.747  49.672  49.382  0.00  0.00     0.013 A 
ENDROOT
BRANCH   2   6
ATOM      6  C   UNL d   1      59.347  49.647  50.803  0.00  0.00     0.025 A 
ATOM      7  C   UNL d   1      60.065  49.603  50.398  0.00  0.00     0.005 A 
ATOM      8  C   UNL d   1      60.772  49.611  50.809  0.00  0.00     0.038 A 
ATOM      9  C   UNL d   1      61.485  49.567  50.407  0.00  0.00     0.003 C 
ATOM     10  C   UNL d   1      60.767  49.663  51.636  0.00  0.00     0.184 A 
ATOM     11  N   UNL d   1      60.044  49.708  52.041  0.00  0.00    -0.224 NA
ATOM     12  N   UNL d   1      61.476  49.671  52.052  0.00  0.00    -0.127 N 
ATOM     13  C   UNL d   1      59.342  49.699  51.615  0.00  0.00     0.101 A 
ENDBRANCH   2   6
BRANCH   3  14
ATOM     14  C   UNL d   1      56.512  49.530  50.178  0.00  0.00     0.217 C 
ATOM     15  O   UNL d   1      56.044  49.352  49.513  0.00  0.00    -0.643 OA
ATOM     16  O   UNL d   1      56.158  49.644  50.897  0.00  0.00    -0.643 OA
ENDBRANCH   3  14
TORSDOF 2
ENDMDL
