MODEL 1
REMARK VINA RESULT:      10.4      0.000      0.000
REMARK  1 active torsions:
REMARK  status: ('A' for Active; 'I' for Inactive)
REMARK    1  A    between atoms: C_6  and  C_2 
ROOT
ATOM      1  N   UNL d   1      24.720  13.348  -4.137  0.00  0.00    -0.220 NA
ATOM      2  C   UNL d   1      24.713  12.653  -3.715  0.00  0.00     0.182 A 
ATOM      3  O   UNL d   1      24.723  12.022  -4.174  0.00  0.00    -0.288 OA
ATOM      4  C   UNL d   1      24.737  13.105  -4.925  0.00  0.00     0.106 A 
ATOM      5  C   UNL d   1      24.739  12.280  -4.948  0.00  0.00     0.119 A 
ATOM      6  C   UNL d   1      24.751  13.552  -5.619  0.00  0.00     0.021 A 
ATOM      7  C   UNL d   1      24.754  11.903  -5.666  0.00  0.00     0.026 A 
ATOM      8  C   UNL d   1      24.768  12.321  -6.381  0.00  0.00     0.002 A 
ATOM      9  C   UNL d   1      24.767  13.175  -6.357  0.00  0.00     0.002 A 
ENDROOT
BRANCH   2  10
ATOM     10  C   UNL d   1      24.696  12.591  -2.896  0.00  0.00     0.041 A 
ATOM     11  C   UNL d   1      24.612  11.854  -2.554  0.00  0.00     0.005 A 
ATOM     12  C   UNL d   1      24.595  11.795  -1.716  0.00  0.00     0.021 A 
ATOM     13  C   UNL d   1      24.662  12.461  -1.250  0.00  0.00     0.103 A 
ATOM     14  C   UNL d   1      24.748  13.214  -1.610  0.00  0.00     0.021 A 
ATOM     15  N   UNL d   1      24.641  12.362  -0.446  0.00  0.00    -0.148 N 
ATOM     16  C   UNL d   1      24.763  13.262  -2.435  0.00  0.00     0.005 A 
ENDBRANCH   2  10
TORSDOF 1
ENDMDL
MODEL 2
REMARK VINA RESULT:      11.7     10.917     11.551
REMARK  1 active torsions:
REMARK  status: ('A' for Active; 'I' for Inactive)
REMARK    1  A    between atoms: C_6  and  C_2 
ROOT
ATOM      1  N   UNL d   1      14.589  12.604  -2.351  0.00  0.00    -0.220 NA
ATOM      2  C   UNL d   1      13.863  12.359  -2.624  0.00  0.00     0.182 A 
ATOM      3  O   UNL d   1      13.429  12.027  -2.068  0.00  0.00    -0.288 OA
ATOM      4  C   UNL d   1      14.584  12.396  -1.552  0.00  0.00     0.106 A 
ATOM      5  C   UNL d   1      13.862  12.037  -1.377  0.00  0.00     0.119 A 
ATOM      6  C   UNL d   1      15.163  12.497  -0.972  0.00  0.00     0.021 A 
ATOM      7  C   UNL d   1      13.719  11.779  -0.620  0.00  0.00     0.026 A 
ATOM      8  C   UNL d   1      14.279  11.866  -0.015  0.00  0.00     0.002 A 
ATOM      9  C   UNL d   1      15.026  12.238  -0.197  0.00  0.00     0.002 A 
ENDROOT
BRANCH   2  10
ATOM     10  C   UNL d   1      13.591  12.439  -3.395  0.00  0.00     0.041 A 
ATOM     11  C   UNL d   1      13.568  13.181  -3.734  0.00  0.00     0.005 A 
ATOM     12  C   UNL d   1      13.289  13.259  -4.523  0.00  0.00     0.021 A 
ATOM     13  C   UNL d   1      13.044  12.605  -4.944  0.00  0.00     0.103 A 
ATOM     14  C   UNL d   1      13.070  11.846  -4.588  0.00  0.00     0.021 A 
ATOM     15  N   UNL d   1      12.781  12.722  -5.702  0.00  0.00    -0.148 N 
ATOM     16  C   UNL d   1      13.347  11.780  -3.811  0.00  0.00     0.005 A 
ENDBRANCH   2  10
TORSDOF 1
ENDMDL
MODEL 3
REMARK VINA RESULT:      12.0     11.019     11.648
REMARK  1 active torsions:
REMARK  status: ('A' for Active; 'I' for Inactive)
REMARK    1  A    between atoms: C_6  and  C_2 
ROOT
ATOM      1  N   UNL d   1      13.188  12.089  -2.027  0.00  0.00    -0.220 NA
ATOM      2  C   UNL d   1      13.695  12.235  -2.645  0.00  0.00     0.182 A 
ATOM      3  O   UNL d   1      14.443  12.248  -2.425  0.00  0.00    -0.288 OA
ATOM      4  C   UNL d   1      13.686  12.007  -1.374  0.00  0.00     0.106 A 
ATOM      5  C   UNL d   1      14.466  12.106  -1.622  0.00  0.00     0.119 A 
ATOM      6  C   UNL d   1      13.505  11.853  -0.583  0.00  0.00     0.021 A 
ATOM      7  C   UNL d   1      15.066  12.051  -1.079  0.00  0.00     0.026 A 
ATOM      8  C   UNL d   1      14.920  11.898  -0.278  0.00  0.00     0.002 A 
ATOM      9  C   UNL d   1      14.112  11.795  -0.021  0.00  0.00     0.002 A 
ENDROOT
BRANCH   2  10
ATOM     10  C   UNL d   1      13.472  12.359  -3.427  0.00  0.00     0.041 A 
ATOM     11  C   UNL d   1      13.051  11.779  -3.818  0.00  0.00     0.005 A 
ATOM     12  C   UNL d   1      12.826  11.911  -4.617  0.00  0.00     0.021 A 
ATOM     13  C   UNL d   1      13.023  12.604  -4.997  0.00  0.00     0.103 A 
ATOM     14  C   UNL d   1      13.456  13.195  -4.587  0.00  0.00     0.021 A 
ATOM     15  N   UNL d   1      12.787  12.692  -5.767  0.00  0.00    -0.148 N 
ATOM     16  C   UNL d   1      13.673  13.057  -3.802  0.00  0.00     0.005 A 
ENDBRANCH   2  10
TORSDOF 1
ENDMDL
