MODEL 1
REMARK VINA RESULT:      65.1      0.000      0.000
REMARK  8 active torsions:
REMARK  status: ('A' for Active; 'I' for Inactive)
REMARK    1  A    between atoms: C_2  and  S_1 
REMARK    2  A    between atoms: N_3  and  S_1 
REMARK    3  A    between atoms: C_17  and  N_3 
REMARK    4  A    between atoms: O_21  and  C_8 
REMARK    5  A    between atoms: O_22  and  C_16 
REMARK    6  A    between atoms: C_18  and  C_17 
REMARK    7  A    between atoms: C_23  and  O_21 
REMARK    8  A    between atoms: C_24  and  O_22 
ROOT
ATOM      1  S   UNL d   1     -52.042  26.171  34.081  0.00  0.00     0.287 S 
ATOM      2  O   UNL d   1     -52.305  26.242  33.306  0.00  0.00    -0.198 OA
ATOM      3  O   UNL d   1     -52.807  26.401  34.349  0.00  0.00    -0.198 OA
ENDROOT
BRANCH   1   4
ATOM      4  C   UNL d   1     -51.279  25.941  33.821  0.00  0.00     0.130 A 
ATOM      5  C   UNL d   1     -50.659  26.486  33.818  0.00  0.00     0.040 A 
ATOM      6  C   UNL d   1     -49.918  26.251  33.561  0.00  0.00     0.101 A 
ATOM      7  C   UNL d   1     -49.791  25.481  33.309  0.00  0.00     0.027 A 
ATOM      8  C   UNL d   1     -50.402  24.925  33.306  0.00  0.00     0.028 A 
ATOM      9  C   UNL d   1     -51.152  25.172  33.568  0.00  0.00     0.112 A 
BRANCH   6  10
ATOM     10  O   UNL d   1     -49.287  26.820  33.562  0.00  0.00    -0.305 OA
BRANCH  10  11
ATOM     11  C   UNL d   1     -49.213  27.380  34.181  0.00  0.00     0.123 C 
ATOM     12  C   UNL d   1     -48.500  27.776  34.278  0.00  0.00     0.029 C 
ENDBRANCH  10  11
ENDBRANCH   6  10
BRANCH   9  13
ATOM     13  O   UNL d   1     -51.798  24.596  33.569  0.00  0.00    -0.304 OA
BRANCH  13  14
ATOM     14  C   UNL d   1     -51.620  23.776  33.635  0.00  0.00     0.123 C 
ATOM     15  C   UNL d   1     -52.139  23.220  33.308  0.00  0.00     0.029 C 
ENDBRANCH  13  14
ENDBRANCH   9  13
ENDBRANCH   1   4
BRANCH   1  16
ATOM     16  N   UNL d   1     -51.787  26.102  34.879  0.00  0.00    -0.157 NA
BRANCH  16  17
ATOM     17  C   UNL d   1     -52.332  26.208  35.510  0.00  0.00     0.112 C 
BRANCH  17  18
ATOM     18  C   UNL d   1     -52.038  26.234  36.308  0.00  0.00     0.022 A 
ATOM     19  C   UNL d   1     -52.417  25.769  36.881  0.00  0.00     0.028 A 
ATOM     20  C   UNL d   1     -52.137  25.789  37.658  0.00  0.00     0.119 A 
ATOM     21  O   UNL d   1     -52.393  25.396  38.339  0.00  0.00    -0.300 OA
ATOM     22  C   UNL d   1     -51.496  26.260  37.860  0.00  0.00     0.119 A 
ATOM     23  C   UNL d   1     -51.901  25.634  38.953  0.00  0.00     0.304 A 
ATOM     24  O   UNL d   1     -51.356  26.158  38.666  0.00  0.00    -0.300 OA
ATOM     25  C   UNL d   1     -51.124  26.720  37.289  0.00  0.00     0.026 A 
ATOM     26  C   UNL d   1     -51.398  26.705  36.510  0.00  0.00     0.004 A 
ENDBRANCH  17  18
ENDBRANCH  16  17
ENDBRANCH   1  16
TORSDOF 8
ENDMDL
