MODEL 1
REMARK VINA RESULT:      40.9      0.000      0.000
REMARK  3 active torsions:
REMARK  status: ('A' for Active; 'I' for Inactive)
REMARK    1  A    between atoms: N_5  and  S_1 
REMARK    2  A    between atoms: C_6  and  S_1 
REMARK    3  A    between atoms: C_2  and  C_9 
ROOT
ATOM      1  C   UNL d   1      13.516  12.337  -2.815  0.00  0.00     0.104 A 
ATOM      2  C   UNL d   1      13.426  13.281  -3.881  0.00  0.00     0.025 A 
ATOM      3  C   UNL d   1      13.673  13.089  -3.123  0.00  0.00     0.015 A 
ATOM      4  C   UNL d   1      13.107  11.779  -3.275  0.00  0.00     0.013 A 
ATOM      5  C   UNL d   1      13.018  12.724  -4.341  0.00  0.00     0.002 A 
ATOM      6  C   UNL d   1      12.858  11.969  -4.035  0.00  0.00     0.001 A 
ENDROOT
BRANCH   2   7
ATOM      7  C   UNL d   1      13.584  14.033  -4.189  0.00  0.00     0.111 A 
ATOM      8  N   UNL d   1      13.980  14.631  -3.801  0.00  0.00    -0.239 NA
ATOM      9  C   UNL d   1      14.014  15.279  -4.306  0.00  0.00     0.088 A 
ATOM     10  C   UNL d   1      14.337  16.026  -4.224  0.00  0.00     0.020 A 
ATOM     11  C   UNL d   1      13.634  15.076  -5.010  0.00  0.00     0.049 A 
ATOM     12  C   UNL d   1      14.286  16.571  -4.833  0.00  0.00     0.002 A 
ATOM     13  C   UNL d   1      13.906  16.367  -5.537  0.00  0.00     0.001 A 
ATOM     14  C   UNL d   1      13.579  15.612  -5.620  0.00  0.00     0.008 A 
ATOM     15  S   UNL d   1      13.367  14.300  -4.936  0.00  0.00    -0.066 SA
ENDBRANCH   2   7
BRANCH   1  16
ATOM     16  S   UNL d   1      13.763  12.141  -2.055  0.00  0.00     0.271 S 
ATOM     17  O   UNL d   1      14.493  12.451  -2.141  0.00  0.00    -0.200 OA
ATOM     18  O   UNL d   1      12.882  11.779  -1.982  0.00  0.00    -0.200 OA
BRANCH  16  19
ATOM     19  N   UNL d   1      14.125  12.004  -1.332  0.00  0.00    -0.229 N 
ATOM     20  C   UNL d   1      14.941  11.936  -1.191  0.00  0.00     0.092 A 
ATOM     21  C   UNL d   1      15.052  11.799  -0.383  0.00  0.00     0.021 A 
ATOM     22  C   UNL d   1      14.318  11.780  -0.019  0.00  0.00     0.021 A 
ATOM     23  C   UNL d   1      13.746  11.906  -0.602  0.00  0.00     0.092 A 
ENDBRANCH  16  19
ENDBRANCH   1  16
TORSDOF 3
ENDMDL
