MODEL 1
REMARK VINA RESULT:      -3.0      0.000      0.000
REMARK  4 active torsions:
REMARK  status: ('A' for Active; 'I' for Inactive)
REMARK    1  A    between atoms: N_5  and  C_1 
REMARK    2  A    between atoms: N_9  and  N_5 
REMARK    3  A    between atoms: C_7  and  C_8 
REMARK    4  A    between atoms: C_12  and  N_9 
ROOT
ATOM      1  N   UNL d   1      32.572  19.338 -23.141  0.00  0.00    -0.146 NA
ENDROOT
BRANCH   1   2
ATOM      2  C   UNL d   1      32.689  18.829 -23.842  0.00  0.00     0.122 A 
ATOM      3  C   UNL d   1      32.989  19.079 -24.543  0.00  0.00     0.101 A 
ATOM      4  N   UNL d   1      33.012  18.428 -25.068  0.00  0.00    -0.244 NA
ATOM      5  C   UNL d   1      33.235  19.838 -24.730  0.00  0.00     0.022 C 
ATOM      6  C   UNL d   1      32.723  17.784 -24.674  0.00  0.00     0.083 A 
ATOM      7  C   UNL d   1      32.514  18.024 -23.896  0.00  0.00     0.039 A 
ATOM      8  C   UNL d   1      32.604  16.988 -24.885  0.00  0.00     0.019 A 
ATOM      9  C   UNL d   1      32.196  17.478 -23.348  0.00  0.00     0.003 A 
ATOM     10  C   UNL d   1      32.083  16.688 -23.572  0.00  0.00     0.000 A 
ATOM     11  C   UNL d   1      32.288  16.433 -24.351  0.00  0.00     0.002 A 
ENDBRANCH   1   2
BRANCH   1  12
ATOM     12  N   UNL d   1      33.223  19.672 -22.751  0.00  0.00    -0.148 NA
BRANCH  12  13
ATOM     13  C   UNL d   1      33.117  20.071 -22.041  0.00  0.00     0.103 A 
ATOM     14  C   UNL d   1      32.891  20.839 -22.034  0.00  0.00     0.027 A 
ATOM     15  C   UNL d   1      32.786  21.238 -21.324  0.00  0.00     0.066 A 
ATOM     16  C   UNL d   1      32.912  20.851 -20.629  0.00  0.00     0.006 A 
ATOM     17  C   UNL d   1      33.140  20.078 -20.633  0.00  0.00     0.002 A 
ATOM     18  C   UNL d   1      33.241  19.692 -21.337  0.00  0.00     0.021 A 
BRANCH  15  19
ATOM     19  C   UNL d   1      32.554  22.028 -21.273  0.00  0.00     0.211 C 
ATOM     20  O   UNL d   1      31.754  22.212 -21.119  0.00  0.00    -0.644 OA
ATOM     21  O   UNL d   1      33.113  22.643 -21.376  0.00  0.00    -0.644 OA
ENDBRANCH  15  19
ENDBRANCH  12  13
ENDBRANCH   1  12
TORSDOF 4
ENDMDL
MODEL 2
REMARK VINA RESULT:      -3.0      2.067      4.810
REMARK  4 active torsions:
REMARK  status: ('A' for Active; 'I' for Inactive)
REMARK    1  A    between atoms: N_5  and  C_1 
REMARK    2  A    between atoms: N_9  and  N_5 
REMARK    3  A    between atoms: C_7  and  C_8 
REMARK    4  A    between atoms: C_12  and  N_9 
ROOT
ATOM      1  N   UNL d   1      32.592  20.564 -21.781  0.00  0.00    -0.146 NA
ENDROOT
BRANCH   1   2
ATOM      2  C   UNL d   1      32.712  21.171 -21.163  0.00  0.00     0.122 A 
ATOM      3  C   UNL d   1      33.005  21.025 -20.430  0.00  0.00     0.101 A 
ATOM      4  N   UNL d   1      33.033  21.746 -20.009  0.00  0.00    -0.244 NA
ATOM      5  C   UNL d   1      33.241  20.300 -20.130  0.00  0.00     0.022 C 
ATOM      6  C   UNL d   1      32.754  22.328 -20.496  0.00  0.00     0.083 A 
ATOM      7  C   UNL d   1      32.547  21.976 -21.231  0.00  0.00     0.039 A 
ATOM      8  C   UNL d   1      32.643  23.148 -20.407  0.00  0.00     0.019 A 
ATOM      9  C   UNL d   1      32.237  22.438 -21.857  0.00  0.00     0.003 A 
ATOM     10  C   UNL d   1      32.133  23.254 -21.754  0.00  0.00     0.000 A 
ATOM     11  C   UNL d   1      32.337  23.620 -21.020  0.00  0.00     0.002 A 
ENDBRANCH   1   2
BRANCH   1  12
ATOM     12  N   UNL d   1      33.241  20.232 -22.176  0.00  0.00    -0.148 NA
BRANCH  12  13
ATOM     13  C   UNL d   1      33.123  19.747 -22.828  0.00  0.00     0.103 A 
ATOM     14  C   UNL d   1      32.890  18.987 -22.734  0.00  0.00     0.027 A 
ATOM     15  C   UNL d   1      32.772  18.502 -23.385  0.00  0.00     0.066 A 
ATOM     16  C   UNL d   1      32.892  18.794 -24.125  0.00  0.00     0.006 A 
ATOM     17  C   UNL d   1      33.127  19.559 -24.223  0.00  0.00     0.002 A 
ATOM     18  C   UNL d   1      33.241  20.031 -23.576  0.00  0.00     0.021 A 
BRANCH  15  19
ATOM     19  C   UNL d   1      32.533  17.713 -23.331  0.00  0.00     0.211 C 
ATOM     20  O   UNL d   1      31.849  17.464 -23.741  0.00  0.00    -0.644 OA
ATOM     21  O   UNL d   1      32.968  17.168 -22.870  0.00  0.00    -0.644 OA
ENDBRANCH  15  19
ENDBRANCH  12  13
ENDBRANCH   1  12
TORSDOF 4
ENDMDL
MODEL 3
REMARK VINA RESULT:      -2.8      1.581      2.443
REMARK  4 active torsions:
REMARK  status: ('A' for Active; 'I' for Inactive)
REMARK    1  A    between atoms: N_5  and  C_1 
REMARK    2  A    between atoms: N_9  and  N_5 
REMARK    3  A    between atoms: C_7  and  C_8 
REMARK    4  A    between atoms: C_12  and  N_9 
ROOT
ATOM      1  N   UNL d   1      32.357  17.672 -23.862  0.00  0.00    -0.146 NA
ENDROOT
BRANCH   1   2
ATOM      2  C   UNL d   1      31.988  16.880 -23.851  0.00  0.00     0.122 A 
ATOM      3  C   UNL d   1      32.390  16.189 -23.786  0.00  0.00     0.101 A 
ATOM      4  N   UNL d   1      31.840  15.560 -23.798  0.00  0.00    -0.244 NA
ATOM      5  C   UNL d   1      33.202  16.097 -23.719  0.00  0.00     0.022 C 
ATOM      6  C   UNL d   1      31.101  15.880 -23.871  0.00  0.00     0.083 A 
ATOM      7  C   UNL d   1      31.181  16.716 -23.906  0.00  0.00     0.039 A 
ATOM      8  C   UNL d   1      30.336  15.556 -23.915  0.00  0.00     0.019 A 
ATOM      9  C   UNL d   1      30.509  17.210 -23.983  0.00  0.00     0.003 A 
ATOM     10  C   UNL d   1      29.753  16.873 -24.025  0.00  0.00     0.000 A 
ATOM     11  C   UNL d   1      29.658  16.034 -23.991  0.00  0.00     0.002 A 
ENDBRANCH   1   2
BRANCH   1  12
ATOM     12  N   UNL d   1      32.678  17.995 -23.169  0.00  0.00    -0.148 NA
BRANCH  12  13
ATOM     13  C   UNL d   1      32.866  18.794 -23.135  0.00  0.00     0.103 A 
ATOM     14  C   UNL d   1      32.866  19.183 -22.435  0.00  0.00     0.027 A 
ATOM     15  C   UNL d   1      33.054  19.982 -22.401  0.00  0.00     0.066 A 
ATOM     16  C   UNL d   1      33.240  20.375 -23.079  0.00  0.00     0.006 A 
ATOM     17  C   UNL d   1      33.240  19.986 -23.784  0.00  0.00     0.002 A 
ATOM     18  C   UNL d   1      33.054  19.199 -23.809  0.00  0.00     0.021 A 
BRANCH  15  19
ATOM     19  C   UNL d   1      33.066  20.419 -21.701  0.00  0.00     0.211 C 
ATOM     20  O   UNL d   1      33.014  21.252 -21.738  0.00  0.00    -0.644 OA
ATOM     21  O   UNL d   1      33.129  20.035 -20.961  0.00  0.00    -0.644 OA
ENDBRANCH  15  19
ENDBRANCH  12  13
ENDBRANCH   1  12
TORSDOF 4
ENDMDL
MODEL 4
REMARK VINA RESULT:      -2.8      2.291      4.361
REMARK  4 active torsions:
REMARK  status: ('A' for Active; 'I' for Inactive)
REMARK    1  A    between atoms: N_5  and  C_1 
REMARK    2  A    between atoms: N_9  and  N_5 
REMARK    3  A    between atoms: C_7  and  C_8 
REMARK    4  A    between atoms: C_12  and  N_9 
ROOT
ATOM      1  N   UNL d   1      33.218  18.955 -23.368  0.00  0.00    -0.146 NA
ENDROOT
BRANCH   1   2
ATOM      2  C   UNL d   1      33.226  19.799 -23.142  0.00  0.00     0.122 A 
ATOM      3  C   UNL d   1      33.233  20.411 -23.662  0.00  0.00     0.101 A 
ATOM      4  N   UNL d   1      33.240  21.126 -23.229  0.00  0.00    -0.244 NA
ATOM      5  C   UNL d   1      33.234  20.361 -24.480  0.00  0.00     0.022 C 
ATOM      6  C   UNL d   1      33.237  20.938 -22.442  0.00  0.00     0.083 A 
ATOM      7  C   UNL d   1      33.228  20.100 -22.374  0.00  0.00     0.039 A 
ATOM      8  C   UNL d   1      33.240  21.389 -21.744  0.00  0.00     0.019 A 
ATOM      9  C   UNL d   1      33.223  19.729 -21.623  0.00  0.00     0.003 A 
ATOM     10  C   UNL d   1      33.227  20.193 -20.936  0.00  0.00     0.000 A 
ATOM     11  C   UNL d   1      33.236  21.036 -20.990  0.00  0.00     0.002 A 
ENDBRANCH   1   2
BRANCH   1  12
ATOM     12  N   UNL d   1      32.521  18.600 -23.644  0.00  0.00    -0.148 NA
BRANCH  12  13
ATOM     13  C   UNL d   1      32.458  17.782 -23.673  0.00  0.00     0.103 A 
ATOM     14  C   UNL d   1      31.747  17.432 -23.783  0.00  0.00     0.027 A 
ATOM     15  C   UNL d   1      31.684  16.613 -23.812  0.00  0.00     0.066 A 
ATOM     16  C   UNL d   1      32.345  16.161 -23.729  0.00  0.00     0.006 A 
ATOM     17  C   UNL d   1      33.062  16.512 -23.617  0.00  0.00     0.002 A 
ATOM     18  C   UNL d   1      33.115  17.318 -23.590  0.00  0.00     0.021 A 
BRANCH  15  19
ATOM     19  C   UNL d   1      30.970  16.214 -23.925  0.00  0.00     0.211 C 
ATOM     20  O   UNL d   1      30.444  16.126 -23.282  0.00  0.00    -0.644 OA
ATOM     21  O   UNL d   1      30.773  15.898 -24.674  0.00  0.00    -0.644 OA
ENDBRANCH  15  19
ENDBRANCH  12  13
ENDBRANCH   1  12
TORSDOF 4
ENDMDL
MODEL 5
REMARK VINA RESULT:      -2.6      2.468      3.652
REMARK  4 active torsions:
REMARK  status: ('A' for Active; 'I' for Inactive)
REMARK    1  A    between atoms: N_5  and  C_1 
REMARK    2  A    between atoms: N_9  and  N_5 
REMARK    3  A    between atoms: C_7  and  C_8 
REMARK    4  A    between atoms: C_12  and  N_9 
ROOT
ATOM      1  N   UNL d   1      30.983  17.367 -24.599  0.00  0.00    -0.146 NA
ENDROOT
BRANCH   1   2
ATOM      2  C   UNL d   1      30.437  16.690 -24.511  0.00  0.00     0.122 A 
ATOM      3  C   UNL d   1      30.617  15.931 -24.698  0.00  0.00     0.101 A 
ATOM      4  N   UNL d   1      29.951  15.453 -24.535  0.00  0.00    -0.244 NA
ATOM      5  C   UNL d   1      31.327  15.654 -24.999  0.00  0.00     0.022 C 
ATOM      6  C   UNL d   1      29.367  15.934 -24.247  0.00  0.00     0.083 A 
ATOM      7  C   UNL d   1      29.663  16.720 -24.228  0.00  0.00     0.039 A 
ATOM      8  C   UNL d   1      28.588  15.799 -23.988  0.00  0.00     0.019 A 
ATOM      9  C   UNL d   1      29.186  17.353 -23.954  0.00  0.00     0.003 A 
ATOM     10  C   UNL d   1      28.412  17.203 -23.699  0.00  0.00     0.000 A 
ATOM     11  C   UNL d   1      28.102  16.417 -23.714  0.00  0.00     0.002 A 
ENDBRANCH   1   2
BRANCH   1  12
ATOM     12  N   UNL d   1      31.773  17.304 -24.358  0.00  0.00    -0.148 NA
BRANCH  12  13
ATOM     13  C   UNL d   1      32.232  17.979 -24.266  0.00  0.00     0.103 A 
ATOM     14  C   UNL d   1      32.402  18.260 -23.536  0.00  0.00     0.027 A 
ATOM     15  C   UNL d   1      32.861  18.935 -23.444  0.00  0.00     0.066 A 
ATOM     16  C   UNL d   1      33.141  19.316 -24.095  0.00  0.00     0.006 A 
ATOM     17  C   UNL d   1      32.972  19.035 -24.832  0.00  0.00     0.002 A 
ATOM     18  C   UNL d   1      32.519  18.369 -24.913  0.00  0.00     0.021 A 
BRANCH  15  19
ATOM     19  C   UNL d   1      33.059  19.256 -22.710  0.00  0.00     0.211 C 
ATOM     20  O   UNL d   1      33.140  20.084 -22.634  0.00  0.00    -0.644 OA
ATOM     21  O   UNL d   1      33.176  18.761 -22.046  0.00  0.00    -0.644 OA
ENDBRANCH  15  19
ENDBRANCH  12  13
ENDBRANCH   1  12
TORSDOF 4
ENDMDL
MODEL 6
REMARK VINA RESULT:      -2.5      3.227      5.185
REMARK  4 active torsions:
REMARK  status: ('A' for Active; 'I' for Inactive)
REMARK    1  A    between atoms: N_5  and  C_1 
REMARK    2  A    between atoms: N_9  and  N_5 
REMARK    3  A    between atoms: C_7  and  C_8 
REMARK    4  A    between atoms: C_12  and  N_9 
ROOT
ATOM      1  N   UNL d   1      31.434  16.416 -24.173  0.00  0.00    -0.146 NA
ENDROOT
BRANCH   1   2
ATOM      2  C   UNL d   1      32.090  16.855 -23.797  0.00  0.00     0.122 A 
ATOM      3  C   UNL d   1      32.623  16.533 -23.291  0.00  0.00     0.101 A 
ATOM      4  N   UNL d   1      33.158  17.131 -23.054  0.00  0.00    -0.244 NA
ATOM      5  C   UNL d   1      32.654  15.754 -23.038  0.00  0.00     0.022 C 
ATOM      6  C   UNL d   1      32.940  17.817 -23.424  0.00  0.00     0.083 A 
ATOM      7  C   UNL d   1      32.264  17.655 -23.897  0.00  0.00     0.039 A 
ATOM      8  C   UNL d   1      33.241  18.592 -23.420  0.00  0.00     0.019 A 
ATOM      9  C   UNL d   1      31.904  18.258 -24.353  0.00  0.00     0.003 A 
ATOM     10  C   UNL d   1      32.215  19.026 -24.339  0.00  0.00     0.000 A 
ATOM     11  C   UNL d   1      32.894  19.202 -23.867  0.00  0.00     0.002 A 
ENDBRANCH   1   2
BRANCH   1  12
ATOM     12  N   UNL d   1      30.842  16.066 -23.710  0.00  0.00    -0.148 NA
BRANCH  12  13
ATOM     13  C   UNL d   1      30.101  15.919 -24.031  0.00  0.00     0.103 A 
ATOM     14  C   UNL d   1      29.437  16.088 -23.618  0.00  0.00     0.027 A 
ATOM     15  C   UNL d   1      28.695  15.941 -23.939  0.00  0.00     0.066 A 
ATOM     16  C   UNL d   1      28.638  15.624 -24.677  0.00  0.00     0.006 A 
ATOM     17  C   UNL d   1      29.305  15.453 -25.095  0.00  0.00     0.002 A 
ATOM     18  C   UNL d   1      30.032  15.600 -24.772  0.00  0.00     0.021 A 
BRANCH  15  19
ATOM     19  C   UNL d   1      27.987  16.100 -23.546  0.00  0.00     0.211 C 
ATOM     20  O   UNL d   1      27.857  16.863 -23.230  0.00  0.00    -0.644 OA
ATOM     21  O   UNL d   1      27.404  15.506 -23.462  0.00  0.00    -0.644 OA
ENDBRANCH  15  19
ENDBRANCH  12  13
ENDBRANCH   1  12
TORSDOF 4
ENDMDL
MODEL 7
REMARK VINA RESULT:      -1.5      2.721      4.562
REMARK  4 active torsions:
REMARK  status: ('A' for Active; 'I' for Inactive)
REMARK    1  A    between atoms: N_5  and  C_1 
REMARK    2  A    between atoms: N_9  and  N_5 
REMARK    3  A    between atoms: C_7  and  C_8 
REMARK    4  A    between atoms: C_12  and  N_9 
ROOT
ATOM      1  N   UNL d   1      32.636  17.945 -23.544  0.00  0.00    -0.146 NA
ENDROOT
BRANCH   1   2
ATOM      2  C   UNL d   1      32.850  18.768 -23.341  0.00  0.00     0.122 A 
ATOM      3  C   UNL d   1      33.014  19.028 -22.600  0.00  0.00     0.101 A 
ATOM      4  N   UNL d   1      33.192  19.844 -22.639  0.00  0.00    -0.244 NA
ATOM      5  C   UNL d   1      33.012  18.584 -21.911  0.00  0.00     0.022 C 
ATOM      6  C   UNL d   1      33.134  20.072 -23.413  0.00  0.00     0.083 A 
ATOM      7  C   UNL d   1      32.917  19.400 -23.868  0.00  0.00     0.039 A 
ATOM      8  C   UNL d   1      33.241  20.797 -23.808  0.00  0.00     0.019 A 
ATOM      9  C   UNL d   1      32.812  19.456 -24.697  0.00  0.00     0.003 A 
ATOM     10  C   UNL d   1      32.923  20.185 -25.076  0.00  0.00     0.000 A 
ATOM     11  C   UNL d   1      33.140  20.869 -24.631  0.00  0.00     0.002 A 
ENDBRANCH   1   2
BRANCH   1  12
ATOM     12  N   UNL d   1      31.880  17.767 -23.834  0.00  0.00    -0.148 NA
BRANCH  12  13
ATOM     13  C   UNL d   1      31.609  16.992 -23.831  0.00  0.00     0.103 A 
ATOM     14  C   UNL d   1      30.849  16.825 -23.646  0.00  0.00     0.027 A 
ATOM     15  C   UNL d   1      30.578  16.050 -23.644  0.00  0.00     0.066 A 
ATOM     16  C   UNL d   1      31.085  15.453 -23.830  0.00  0.00     0.006 A 
ATOM     17  C   UNL d   1      31.852  15.617 -24.017  0.00  0.00     0.002 A 
ATOM     18  C   UNL d   1      32.110  16.384 -24.017  0.00  0.00     0.021 A 
BRANCH  15  19
ATOM     19  C   UNL d   1      29.803  15.837 -23.459  0.00  0.00     0.211 C 
ATOM     20  O   UNL d   1      29.218  15.859 -24.056  0.00  0.00    -0.644 OA
ATOM     21  O   UNL d   1      29.601  15.601 -22.682  0.00  0.00    -0.644 OA
ENDBRANCH  15  19
ENDBRANCH  12  13
ENDBRANCH   1  12
TORSDOF 4
ENDMDL
MODEL 8
REMARK VINA RESULT:      -0.9      3.331      4.752
REMARK  4 active torsions:
REMARK  status: ('A' for Active; 'I' for Inactive)
REMARK    1  A    between atoms: N_5  and  C_1 
REMARK    2  A    between atoms: N_9  and  N_5 
REMARK    3  A    between atoms: C_7  and  C_8 
REMARK    4  A    between atoms: C_12  and  N_9 
ROOT
ATOM      1  N   UNL d   1      32.298  22.034 -20.008  0.00  0.00    -0.146 NA
ENDROOT
BRANCH   1   2
ATOM      2  C   UNL d   1      32.561  21.627 -20.735  0.00  0.00     0.122 A 
ATOM      3  C   UNL d   1      32.703  20.839 -20.792  0.00  0.00     0.101 A 
ATOM      4  N   UNL d   1      32.943  20.670 -21.575  0.00  0.00    -0.244 NA
ATOM      5  C   UNL d   1      32.632  20.282 -20.195  0.00  0.00     0.022 C 
ATOM      6  C   UNL d   1      32.943  21.364 -21.989  0.00  0.00     0.083 A 
ATOM      7  C   UNL d   1      32.703  21.979 -21.468  0.00  0.00     0.039 A 
ATOM      8  C   UNL d   1      33.124  21.564 -22.776  0.00  0.00     0.019 A 
ATOM      9  C   UNL d   1      32.647  22.771 -21.734  0.00  0.00     0.003 A 
ATOM     10  C   UNL d   1      32.831  22.954 -22.521  0.00  0.00     0.000 A 
ATOM     11  C   UNL d   1      33.074  22.346 -23.055  0.00  0.00     0.002 A 
ENDBRANCH   1   2
BRANCH   1  12
ATOM     12  N   UNL d   1      32.853  22.341 -19.474  0.00  0.00    -0.148 NA
BRANCH  12  13
ATOM     13  C   UNL d   1      32.603  22.761 -18.814  0.00  0.00     0.103 A 
ATOM     14  C   UNL d   1      32.964  22.662 -18.107  0.00  0.00     0.027 A 
ATOM     15  C   UNL d   1      32.713  23.082 -17.447  0.00  0.00     0.066 A 
ATOM     16  C   UNL d   1      32.098  23.597 -17.514  0.00  0.00     0.006 A 
ATOM     17  C   UNL d   1      31.732  23.698 -18.225  0.00  0.00     0.002 A 
ATOM     18  C   UNL d   1      31.986  23.281 -18.870  0.00  0.00     0.021 A 
BRANCH  15  19
ATOM     19  C   UNL d   1      33.058  23.009 -16.700  0.00  0.00     0.211 C 
ATOM     20  O   UNL d   1      33.224  23.697 -16.257  0.00  0.00    -0.644 OA
ATOM     21  O   UNL d   1      33.241  22.254 -16.389  0.00  0.00    -0.644 OA
ENDBRANCH  15  19
ENDBRANCH  12  13
ENDBRANCH   1  12
TORSDOF 4
ENDMDL
