MODEL 1
REMARK VINA RESULT:     139.9      0.000      0.000
REMARK  7 active torsions:
REMARK  status: ('A' for Active; 'I' for Inactive)
REMARK    1  A    between atoms: N_3  and  S_1 
REMARK    2  A    between atoms: C_7  and  S_1 
REMARK    3  A    between atoms: N_2  and  C_6 
REMARK    4  A    between atoms: C_5  and  N_3 
REMARK    5  A    between atoms: C_10  and  N_4 
REMARK    6  A    between atoms: C_6  and  C_5 
REMARK    7  A    between atoms: C_11  and  C_6 
ROOT
ATOM      1  C   UNL d   1     -57.702 -99.327 -43.545  0.00  0.00     0.086 C 
ENDROOT
BRANCH   1   2
ATOM      2  N   UNL d   1     -58.027 -99.382 -42.771  0.00  0.00    -0.300 N 
ATOM      3  C   UNL d   1     -57.781 -98.862 -42.175  0.00  0.00     0.100 A 
ATOM      4  C   UNL d   1     -58.101 -98.919 -41.419  0.00  0.00     0.100 A 
ATOM      5  N   UNL d   1     -58.668 -99.495 -41.257  0.00  0.00    -0.301 N 
ATOM      6  C   UNL d   1     -58.914-100.015 -41.853  0.00  0.00     0.100 A 
ATOM      7  C   UNL d   1     -58.593 -99.957 -42.610  0.00  0.00     0.100 A 
BRANCH   5   8
ATOM      8  C   UNL d   1     -58.988 -99.552 -40.501  0.00  0.00     0.064 A 
ATOM      9  C   UNL d   1     -59.334 -98.890 -40.151  0.00  0.00     0.020 A 
ATOM     10  C   UNL d   1     -59.656 -98.946 -39.392  0.00  0.00     0.031 A 
ATOM     11  C   UNL d   1     -59.631 -99.663 -38.985  0.00  0.00     0.140 A 
ATOM     12  C   UNL d   1     -59.284-100.325 -39.337  0.00  0.00     0.031 A 
ATOM     13  F   UNL d   1     -59.955 -99.726 -38.216  0.00  0.00    -0.204 F 
ATOM     14  C   UNL d   1     -58.963-100.269 -40.093  0.00  0.00     0.020 A 
ENDBRANCH   5   8
ENDBRANCH   1   2
BRANCH   1  15
ATOM     15  C   UNL d   1     -56.892 -99.180 -43.651  0.00  0.00     0.130 C 
BRANCH  15  16
ATOM     16  N   UNL d   1     -56.408 -99.755 -44.011  0.00  0.00    -0.155 NA
BRANCH  16  17
ATOM     17  S   UNL d   1     -55.598 -99.646 -44.057  0.00  0.00     0.285 S 
ATOM     18  O   UNL d   1     -54.772 -99.535 -44.104  0.00  0.00    -0.198 OA
ATOM     19  O   UNL d   1     -55.685 -98.858 -43.817  0.00  0.00    -0.198 OA
BRANCH  17  20
ATOM     20  C   UNL d   1     -55.505-100.438 -44.299  0.00  0.00     0.105 A 
ATOM     21  C   UNL d   1     -55.631-100.641 -45.089  0.00  0.00     0.015 A 
ATOM     22  C   UNL d   1     -55.541-101.421 -45.334  0.00  0.00     0.030 A 
ATOM     23  C   UNL d   1     -55.321-102.009 -44.779  0.00  0.00     0.140 A 
ATOM     24  C   UNL d   1     -55.194-101.802 -43.986  0.00  0.00     0.030 A 
ATOM     25  F   UNL d   1     -55.224-102.813 -45.014  0.00  0.00    -0.204 F 
ATOM     26  C   UNL d   1     -55.287-101.014 -43.747  0.00  0.00     0.015 A 
ENDBRANCH  17  20
ENDBRANCH  16  17
ENDBRANCH  15  16
ENDBRANCH   1  15
BRANCH   1  27
ATOM     27  C   UNL d   1     -58.199 -99.421 -44.207  0.00  0.00     0.037 A 
ATOM     28  C   UNL d   1     -58.364 -98.769 -44.682  0.00  0.00     0.100 A 
ATOM     29  N   UNL d   1     -58.855 -98.855 -45.340  0.00  0.00    -0.242 NA
ATOM     30  C   UNL d   1     -59.177 -99.596 -45.514  0.00  0.00     0.099 A 
ATOM     31  C   UNL d   1     -59.012-100.247 -45.040  0.00  0.00     0.021 A 
ATOM     32  C   UNL d   1     -58.521-100.158 -44.383  0.00  0.00     0.005 A 
ENDBRANCH   1  27
TORSDOF 7
ENDMDL
