MODEL 1
REMARK VINA RESULT:      21.4      0.000      0.000
REMARK  2 active torsions:
REMARK  status: ('A' for Active; 'I' for Inactive)
REMARK    1  A    between atoms: C_4  and  C_1 
REMARK    2  A    between atoms: N_2  and  C_9 
REMARK       I    between atoms: N_7  and  C_4 
ROOT
ATOM      1  C   UNL d   1      45.926 -14.680  44.434  0.00  0.00     0.086 A 
ATOM      2  S   UNL d   1      45.403 -15.097  44.867  0.00  0.00    -0.082 SA
ATOM      3  C   UNL d   1      46.382 -15.172  43.974  0.00  0.00     0.012 A 
ATOM      4  C   UNL d   1      46.133 -15.947  44.125  0.00  0.00     0.008 A 
ATOM      5  C   UNL d   1      45.525 -15.901  44.680  0.00  0.00     0.030 A 
ATOM      6  C   UNL d   1      46.005 -17.373  44.105  0.00  0.00     0.127 A 
ATOM      7  C   UNL d   1      46.367 -16.674  43.844  0.00  0.00     0.024 A 
ATOM      8  C   UNL d   1      45.150 -16.581  44.955  0.00  0.00     0.008 A 
ATOM      9  C   UNL d   1      45.397 -17.326  44.660  0.00  0.00     0.024 A 
ENDROOT
BRANCH   1  10
ATOM     10  C   UNL d   1      45.989 -13.837  44.457  0.00  0.00     0.271 C 
ATOM     11  N   UNL d   1      45.501 -13.372  44.002  0.00  0.00    -0.272 N 
ATOM     12  C   UNL d   1      44.939 -13.724  43.512  0.00  0.00     0.083 A 
ATOM     13  C   UNL d   1      45.564 -12.540  44.025  0.00  0.00     0.083 A 
ATOM     14  C   UNL d   1      44.439 -13.265  43.047  0.00  0.00     0.019 A 
ATOM     15  C   UNL d   1      44.498 -12.442  43.067  0.00  0.00     0.003 A 
ATOM     16  C   UNL d   1      45.061 -12.080  43.556  0.00  0.00     0.019 A 
ATOM     17  O   UNL d   1      46.557 -13.499  44.952  0.00  0.00    -0.266 OA
ENDBRANCH   1  10
BRANCH   6  18
ATOM     18  N   UNL d   1      46.252 -18.119  43.811  0.00  0.00    -0.114 N 
ATOM     19  O   UNL d   1      46.453 -18.729  44.348  0.00  0.00    -0.532 OA
ATOM     20  O   UNL d   1      46.295 -18.249  43.003  0.00  0.00    -0.532 OA
ENDBRANCH   6  18
TORSDOF 2
ENDMDL
