MODEL 1
REMARK VINA RESULT:      -4.1      0.000      0.000
REMARK  4 active torsions:
REMARK  status: ('A' for Active; 'I' for Inactive)
REMARK    1  A    between atoms: S_11  and  C_4 
REMARK       I    between atoms: N_8  and  C_10 
REMARK    2  A    between atoms: C_20  and  N_9 
REMARK    3  A    between atoms: C_10  and  C_15 
REMARK    4  A    between atoms: C_15  and  S_11 
ROOT
ATOM      1  N   UNL d   1      58.230  -0.715  29.956  0.00  0.00    -0.269 N 
ATOM      2  N   UNL d   1      58.934  -2.082  29.371  0.00  0.00    -0.301 N 
ATOM      3  C   UNL d   1      57.877  -0.029  30.249  0.00  0.00     0.272 C 
ATOM      4  C   UNL d   1      58.244  -1.400  30.416  0.00  0.00     0.102 A 
ATOM      5  C   UNL d   1      58.568  -0.715  29.203  0.00  0.00     0.102 A 
ATOM      6  C   UNL d   1      58.920  -1.397  28.911  0.00  0.00     0.100 A 
ATOM      7  C   UNL d   1      58.595  -2.082  30.124  0.00  0.00     0.100 A 
ATOM      8  O   UNL d   1      57.862   0.656  29.789  0.00  0.00    -0.266 OA
ENDROOT
BRANCH   3   9
ATOM      9  C   UNL d   1      57.538  -0.029  31.002  0.00  0.00     0.099 C 
BRANCH   9  10
ATOM     10  S   UNL d   1      57.446   0.682  31.412  0.00  0.00    -0.044 SA
BRANCH  10  11
ATOM     11  C   UNL d   1      57.095   0.678  32.168  0.00  0.00     0.182 A 
ATOM     12  N   UNL d   1      56.264   0.674  32.240  0.00  0.00    -0.222 NA
ATOM     13  C   UNL d   1      55.922   0.670  32.979  0.00  0.00     0.095 A 
ATOM     14  C   UNL d   1      56.391   0.670  33.658  0.00  0.00     0.104 A 
ATOM     15  C   UNL d   1      55.131   0.666  33.213  0.00  0.00     0.026 A 
ATOM     16  C   UNL d   1      57.203   0.674  33.597  0.00  0.00     0.274 A 
ATOM     17  S   UNL d   1      55.890   0.666  34.310  0.00  0.00    -0.081 SA
ATOM     18  N   UNL d   1      57.564   0.678  32.847  0.00  0.00    -0.251 N 
ATOM     19  O   UNL d   1      57.672   0.674  34.276  0.00  0.00    -0.266 OA
ATOM     20  C   UNL d   1      58.392   0.681  32.781  0.00  0.00     0.104 C 
ATOM     21  C   UNL d   1      55.110   0.664  34.030  0.00  0.00     0.031 A 
ATOM     22  C   UNL d   1      54.424   0.659  34.488  0.00  0.00     0.007 C 
ENDBRANCH  10  11
ENDBRANCH   9  10
ENDBRANCH   3   9
BRANCH   2  23
ATOM     23  C   UNL d   1      59.287  -2.768  29.078  0.00  0.00     0.064 A 
ATOM     24  C   UNL d   1      60.110  -2.831  29.055  0.00  0.00     0.018 A 
ATOM     25  C   UNL d   1      60.463  -3.517  28.761  0.00  0.00     0.002 A 
ATOM     26  C   UNL d   1      59.993  -4.139  28.492  0.00  0.00     0.000 A 
ATOM     27  C   UNL d   1      59.170  -4.077  28.515  0.00  0.00     0.002 A 
ATOM     28  C   UNL d   1      58.817  -3.391  28.809  0.00  0.00     0.018 A 
ENDBRANCH   2  23
TORSDOF 4
ENDMDL
