MODEL 1
REMARK VINA RESULT:      17.4      0.000      0.000
REMARK  3 active torsions:
REMARK  status: ('A' for Active; 'I' for Inactive)
REMARK    1  A    between atoms: C_4  and  C_1 
REMARK    2  A    between atoms: C_7  and  C_4 
REMARK    3  A    between atoms: C_10  and  C_7 
ROOT
ATOM      1  C   UNL d   1      45.424 -15.222  44.866  0.00  0.00     0.062 A 
ATOM      2  C   UNL d   1      44.600 -15.168  44.874  0.00  0.00     0.279 A 
ATOM      3  N   UNL d   1      44.396 -14.376  44.787  0.00  0.00    -0.208 NA
ATOM      4  C   UNL d   1      45.724 -14.463  44.774  0.00  0.00     0.022 A 
ATOM      5  C   UNL d   1      45.095 -13.940  44.725  0.00  0.00     0.085 A 
ATOM      6  O   UNL d   1      44.072 -15.796  44.955  0.00  0.00    -0.265 OA
ATOM      7  C   UNL d   1      46.502 -14.187  44.729  0.00  0.00     0.002 A 
ATOM      8  C   UNL d   1      45.240 -13.129  44.630  0.00  0.00     0.019 A 
ATOM      9  C   UNL d   1      46.647 -13.376  44.634  0.00  0.00     0.000 A 
ATOM     10  C   UNL d   1      46.011 -12.853  44.585  0.00  0.00     0.002 A 
ENDROOT
BRANCH   1  11
ATOM     11  C   UNL d   1      45.863 -15.914  44.937  0.00  0.00     0.047 C 
BRANCH  11  12
ATOM     12  C   UNL d   1      45.659 -16.407  44.305  0.00  0.00     0.196 C 
ATOM     13  O   UNL d   1      45.153 -16.137  43.719  0.00  0.00    -0.287 OA
BRANCH  12  14
ATOM     14  C   UNL d   1      45.969 -17.171  44.269  0.00  0.00     0.039 A 
ATOM     15  C   UNL d   1      46.242 -17.474  43.551  0.00  0.00     0.003 A 
ATOM     16  C   UNL d   1      46.550 -18.232  43.509  0.00  0.00     0.000 A 
ATOM     17  C   UNL d   1      46.590 -18.702  44.191  0.00  0.00     0.000 A 
ATOM     18  C   UNL d   1      46.317 -18.400  44.908  0.00  0.00     0.000 A 
ATOM     19  C   UNL d   1      46.007 -17.639  44.952  0.00  0.00     0.003 A 
ENDBRANCH  12  14
ENDBRANCH  11  12
ENDBRANCH   1  11
TORSDOF 3
ENDMDL
MODEL 2
REMARK VINA RESULT:      20.2      2.323      4.404
REMARK  3 active torsions:
REMARK  status: ('A' for Active; 'I' for Inactive)
REMARK    1  A    between atoms: C_4  and  C_1 
REMARK    2  A    between atoms: C_7  and  C_4 
REMARK    3  A    between atoms: C_10  and  C_7 
ROOT
ATOM      1  C   UNL d   1      45.566 -13.074  44.377  0.00  0.00     0.062 A 
ATOM      2  C   UNL d   1      46.290 -12.942  44.748  0.00  0.00     0.279 A 
ATOM      3  N   UNL d   1      46.609 -13.672  44.953  0.00  0.00    -0.208 NA
ATOM      4  C   UNL d   1      45.440 -13.886  44.353  0.00  0.00     0.022 A 
ATOM      5  C   UNL d   1      46.079 -14.256  44.707  0.00  0.00     0.085 A 
ATOM      6  O   UNL d   1      46.638 -12.208  44.892  0.00  0.00    -0.265 OA
ATOM      7  C   UNL d   1      44.813 -14.331  44.049  0.00  0.00     0.002 A 
ATOM      8  C   UNL d   1      46.097 -15.085  44.760  0.00  0.00     0.019 A 
ATOM      9  C   UNL d   1      44.832 -15.158  44.102  0.00  0.00     0.000 A 
ATOM     10  C   UNL d   1      45.477 -15.527  44.459  0.00  0.00     0.002 A 
ENDROOT
BRANCH   1  11
ATOM     11  C   UNL d   1      45.061 -12.495  44.083  0.00  0.00     0.047 C 
BRANCH  11  12
ATOM     12  C   UNL d   1      45.351 -12.260  43.344  0.00  0.00     0.196 C 
ATOM     13  O   UNL d   1      46.147 -12.083  43.252  0.00  0.00    -0.287 OA
BRANCH  12  14
ATOM     14  C   UNL d   1      44.835 -12.207  42.702  0.00  0.00     0.039 A 
ATOM     15  C   UNL d   1      45.129 -12.224  41.931  0.00  0.00     0.003 A 
ATOM     16  C   UNL d   1      44.621 -12.172  41.290  0.00  0.00     0.000 A 
ATOM     17  C   UNL d   1      43.805 -12.100  41.413  0.00  0.00     0.000 A 
ATOM     18  C   UNL d   1      43.510 -12.083  42.183  0.00  0.00     0.000 A 
ATOM     19  C   UNL d   1      44.019 -12.136  42.828  0.00  0.00     0.003 A 
ENDBRANCH  12  14
ENDBRANCH  11  12
ENDBRANCH   1  11
TORSDOF 3
ENDMDL
MODEL 3
REMARK VINA RESULT:      20.3      1.480      2.032
REMARK  3 active torsions:
REMARK  status: ('A' for Active; 'I' for Inactive)
REMARK    1  A    between atoms: C_4  and  C_1 
REMARK    2  A    between atoms: C_7  and  C_4 
REMARK    3  A    between atoms: C_10  and  C_7 
ROOT
ATOM      1  C   UNL d   1      45.351 -13.858  44.276  0.00  0.00     0.062 A 
ATOM      2  C   UNL d   1      46.001 -13.381  44.452  0.00  0.00     0.279 A 
ATOM      3  N   UNL d   1      45.893 -12.656  44.077  0.00  0.00    -0.208 NA
ATOM      4  C   UNL d   1      44.845 -13.426  43.794  0.00  0.00     0.022 A 
ATOM      5  C   UNL d   1      45.175 -12.686  43.670  0.00  0.00     0.085 A 
ATOM      6  O   UNL d   1      46.646 -13.590  44.919  0.00  0.00    -0.265 OA
ATOM      7  C   UNL d   1      44.117 -13.622  43.452  0.00  0.00     0.002 A 
ATOM      8  C   UNL d   1      44.777 -12.131  43.198  0.00  0.00     0.019 A 
ATOM      9  C   UNL d   1      43.720 -13.067  42.981  0.00  0.00     0.000 A 
ATOM     10  C   UNL d   1      44.057 -12.324  42.859  0.00  0.00     0.002 A 
ENDROOT
BRANCH   1  11
ATOM     11  C   UNL d   1      45.232 -14.629  44.538  0.00  0.00     0.047 C 
BRANCH  11  12
ATOM     12  C   UNL d   1      45.827 -15.100  44.207  0.00  0.00     0.196 C 
ATOM     13  O   UNL d   1      46.462 -14.751  43.822  0.00  0.00    -0.287 OA
BRANCH  12  14
ATOM     14  C   UNL d   1      45.776 -15.921  44.269  0.00  0.00     0.039 A 
ATOM     15  C   UNL d   1      46.136 -16.402  43.703  0.00  0.00     0.003 A 
ATOM     16  C   UNL d   1      46.090 -17.218  43.758  0.00  0.00     0.000 A 
ATOM     17  C   UNL d   1      45.678 -17.568  44.387  0.00  0.00     0.000 A 
ATOM     18  C   UNL d   1      45.318 -17.088  44.953  0.00  0.00     0.000 A 
ATOM     19  C   UNL d   1      45.364 -16.268  44.898  0.00  0.00     0.003 A 
ENDBRANCH  12  14
ENDBRANCH  11  12
ENDBRANCH   1  11
TORSDOF 3
ENDMDL
