MODEL 1
REMARK VINA RESULT:      -6.1      0.000      0.000
REMARK  4 active torsions:
REMARK  status: ('A' for Active; 'I' for Inactive)
REMARK    1  A    between atoms: C_3  and  C_1 
REMARK    2  A    between atoms: C_2  and  C_3 
REMARK    3  A    between atoms: C_6  and  C_2 
REMARK    4  A    between atoms: C_4  and  C_6 
ROOT
ATOM      1  C   UNL d   1     -48.306  12.559  22.917  0.00  0.00     0.043 C 
ENDROOT
BRANCH   1   2
ATOM      2  C   UNL d   1     -48.822  11.924  22.948  0.00  0.00     0.202 C 
ATOM      3  O   UNL d   1     -48.575  11.144  22.897  0.00  0.00    -0.286 OA
BRANCH   2   4
ATOM      4  C   UNL d   1     -49.653  12.040  23.036  0.00  0.00     0.068 A 
ATOM      5  S   UNL d   1     -50.116  11.879  23.696  0.00  0.00    -0.083 SA
ATOM      6  C   UNL d   1     -50.892  12.073  23.546  0.00  0.00     0.035 A 
ATOM      7  C   UNL d   1     -50.908  12.365  22.765  0.00  0.00     0.008 A 
ATOM      8  C   UNL d   1     -50.170  12.352  22.442  0.00  0.00     0.010 A 
ENDBRANCH   2   4
ENDBRANCH   1   2
BRANCH   1   9
ATOM      9  C   UNL d   1     -47.493  12.408  22.937  0.00  0.00     0.010 C 
BRANCH   9  10
ATOM     10  C   UNL d   1     -46.971  13.046  22.856  0.00  0.00     0.030 A 
ATOM     11  S   UNL d   1     -47.058  13.851  22.968  0.00  0.00    -0.086 SA
ATOM     12  C   UNL d   1     -46.330  14.208  22.797  0.00  0.00     0.035 A 
ATOM     13  C   UNL d   1     -45.842  13.644  22.596  0.00  0.00     0.007 A 
ATOM     14  C   UNL d   1     -46.188  12.933  22.619  0.00  0.00     0.007 A 
ENDBRANCH   9  10
ENDBRANCH   1   9
TORSDOF 4
ENDMDL
MODEL 2
REMARK VINA RESULT:      -6.0      2.507      2.677
REMARK  4 active torsions:
REMARK  status: ('A' for Active; 'I' for Inactive)
REMARK    1  A    between atoms: C_3  and  C_1 
REMARK    2  A    between atoms: C_2  and  C_3 
REMARK    3  A    between atoms: C_6  and  C_2 
REMARK    4  A    between atoms: C_4  and  C_6 
ROOT
ATOM      1  C   UNL d   1     -48.510  14.349  22.903  0.00  0.00     0.043 C 
ENDROOT
BRANCH   1   2
ATOM      2  C   UNL d   1     -48.902  15.030  22.670  0.00  0.00     0.202 C 
ATOM      3  O   UNL d   1     -48.582  15.574  22.148  0.00  0.00    -0.286 OA
BRANCH   2   4
ATOM      4  C   UNL d   1     -49.673  15.211  22.961  0.00  0.00     0.068 A 
ATOM      5  S   UNL d   1     -50.395  14.943  22.673  0.00  0.00    -0.083 SA
ATOM      6  C   UNL d   1     -51.004  15.252  23.115  0.00  0.00     0.035 A 
ATOM      7  C   UNL d   1     -50.644  15.728  23.697  0.00  0.00     0.008 A 
ATOM      8  C   UNL d   1     -49.842  15.715  23.619  0.00  0.00     0.010 A 
ENDBRANCH   2   4
ENDBRANCH   1   2
BRANCH   1   9
ATOM      9  C   UNL d   1     -47.759  14.200  22.590  0.00  0.00     0.010 C 
BRANCH   9  10
ATOM     10  C   UNL d   1     -47.339  13.542  22.869  0.00  0.00     0.030 A 
ATOM     11  S   UNL d   1     -47.557  12.768  23.015  0.00  0.00    -0.086 SA
ATOM     12  C   UNL d   1     -46.886  12.367  23.290  0.00  0.00     0.035 A 
ATOM     13  C   UNL d   1     -46.306  12.878  23.304  0.00  0.00     0.007 A 
ATOM     14  C   UNL d   1     -46.538  13.592  23.059  0.00  0.00     0.007 A 
ENDBRANCH   9  10
ENDBRANCH   1   9
TORSDOF 4
ENDMDL
MODEL 3
REMARK VINA RESULT:      -5.9      2.092      3.265
REMARK  4 active torsions:
REMARK  status: ('A' for Active; 'I' for Inactive)
REMARK    1  A    between atoms: C_3  and  C_1 
REMARK    2  A    between atoms: C_2  and  C_3 
REMARK    3  A    between atoms: C_6  and  C_2 
REMARK    4  A    between atoms: C_4  and  C_6 
ROOT
ATOM      1  C   UNL d   1     -48.620  13.623  23.044  0.00  0.00     0.043 C 
ENDROOT
BRANCH   1   2
ATOM      2  C   UNL d   1     -48.140  13.095  22.641  0.00  0.00     0.202 C 
ATOM      3  O   UNL d   1     -48.100  13.062  21.823  0.00  0.00    -0.286 OA
BRANCH   2   4
ATOM      4  C   UNL d   1     -47.650  12.546  23.054  0.00  0.00     0.068 A 
ATOM      5  S   UNL d   1     -46.858  12.632  23.255  0.00  0.00    -0.083 SA
ATOM      6  C   UNL d   1     -46.597  11.970  23.652  0.00  0.00     0.035 A 
ATOM      7  C   UNL d   1     -47.254  11.459  23.697  0.00  0.00     0.008 A 
ATOM      8  C   UNL d   1     -47.898  11.790  23.342  0.00  0.00     0.010 A 
ENDBRANCH   2   4
ENDBRANCH   1   2
BRANCH   1   9
ATOM      9  C   UNL d   1     -49.067  14.163  22.606  0.00  0.00     0.010 C 
BRANCH   9  10
ATOM     10  C   UNL d   1     -49.575  14.676  23.013  0.00  0.00     0.030 A 
ATOM     11  S   UNL d   1     -50.298  14.567  23.378  0.00  0.00    -0.086 SA
ATOM     12  C   UNL d   1     -50.533  15.297  23.692  0.00  0.00     0.035 A 
ATOM     13  C   UNL d   1     -49.978  15.807  23.521  0.00  0.00     0.007 A 
ATOM     14  C   UNL d   1     -49.387  15.474  23.115  0.00  0.00     0.007 A 
ENDBRANCH   9  10
ENDBRANCH   1   9
TORSDOF 4
ENDMDL
MODEL 4
REMARK VINA RESULT:      -5.9      0.951      3.698
REMARK  4 active torsions:
REMARK  status: ('A' for Active; 'I' for Inactive)
REMARK    1  A    between atoms: C_3  and  C_1 
REMARK    2  A    between atoms: C_2  and  C_3 
REMARK    3  A    between atoms: C_6  and  C_2 
REMARK    4  A    between atoms: C_4  and  C_6 
ROOT
ATOM      1  C   UNL d   1     -48.612  12.881  22.601  0.00  0.00     0.043 C 
ENDROOT
BRANCH   1   2
ATOM      2  C   UNL d   1     -47.963  13.018  22.120  0.00  0.00     0.202 C 
ATOM      3  O   UNL d   1     -47.939  12.803  21.330  0.00  0.00    -0.286 OA
BRANCH   2   4
ATOM      4  C   UNL d   1     -47.270  13.396  22.418  0.00  0.00     0.068 A 
ATOM      5  S   UNL d   1     -46.524  13.068  22.521  0.00  0.00    -0.083 SA
ATOM      6  C   UNL d   1     -46.013  13.626  22.823  0.00  0.00     0.035 A 
ATOM      7  C   UNL d   1     -46.462  14.323  22.909  0.00  0.00     0.008 A 
ATOM      8  C   UNL d   1     -47.222  14.203  22.669  0.00  0.00     0.010 A 
ENDBRANCH   2   4
ENDBRANCH   1   2
BRANCH   1   9
ATOM      9  C   UNL d   1     -49.209  12.381  22.325  0.00  0.00     0.010 C 
BRANCH   9  10
ATOM     10  C   UNL d   1     -49.887  12.281  22.791  0.00  0.00     0.030 A 
ATOM     11  S   UNL d   1     -50.595  12.687  22.833  0.00  0.00    -0.086 SA
ATOM     12  C   UNL d   1     -51.060  12.319  23.413  0.00  0.00     0.035 A 
ATOM     13  C   UNL d   1     -50.647  11.730  23.695  0.00  0.00     0.007 A 
ATOM     14  C   UNL d   1     -49.939  11.674  23.348  0.00  0.00     0.007 A 
ENDBRANCH   9  10
ENDBRANCH   1   9
TORSDOF 4
ENDMDL
