MODEL 1
REMARK VINA RESULT:      -1.2      0.000      0.000
REMARK  7 active torsions:
REMARK  status: ('A' for Active; 'I' for Inactive)
REMARK    1  A    between atoms: C_12  and  N_3 
REMARK    2  A    between atoms: C_10  and  C_4 
REMARK    3  A    between atoms: C_15  and  C_12 
REMARK    4  A    between atoms: N_14  and  C_21 
REMARK    5  A    between atoms: C_22  and  N_14 
REMARK    6  A    between atoms: C_21  and  C_15 
REMARK    7  A    between atoms: C_20  and  C_22 
ROOT
ATOM      1  C   UNL d   1      57.239   0.676  33.991  0.00  0.00     0.137 A 
ATOM      2  N   UNL d   1      56.942   0.677  34.774  0.00  0.00    -0.259 N 
ATOM      3  N   UNL d   1      56.712   0.674  33.350  0.00  0.00    -0.287 N 
ATOM      4  C   UNL d   1      58.056   0.678  33.858  0.00  0.00     0.054 A 
ATOM      5  C   UNL d   1      57.462   0.679  35.425  0.00  0.00     0.266 A 
ATOM      6  C   UNL d   1      55.594   0.673  34.254  0.00  0.00     0.084 A 
ATOM      7  C   UNL d   1      55.895   0.673  33.482  0.00  0.00     0.082 A 
ATOM      8  C   UNL d   1      58.586   0.680  34.505  0.00  0.00     0.009 A 
ATOM      9  C   UNL d   1      58.289   0.680  35.289  0.00  0.00     0.061 A 
ATOM     10  O   UNL d   1      57.170   0.679  36.196  0.00  0.00    -0.267 OA
ATOM     11  C   UNL d   1      54.781   0.671  34.387  0.00  0.00     0.019 A 
ATOM     12  C   UNL d   1      59.398   0.681  34.372  0.00  0.00     0.000 C 
ATOM     13  C   UNL d   1      55.367   0.671  32.840  0.00  0.00     0.019 A 
ATOM     14  C   UNL d   1      54.261   0.669  33.750  0.00  0.00     0.002 A 
ATOM     15  C   UNL d   1      54.555   0.669  32.975  0.00  0.00     0.002 A 
ENDROOT
BRANCH   3  16
ATOM     16  C   UNL d   1      57.011   0.674  32.582  0.00  0.00     0.126 C 
BRANCH  16  17
ATOM     17  C   UNL d   1      57.064  -0.036  32.167  0.00  0.00     0.232 C 
ATOM     18  O   UNL d   1      57.169  -0.750  32.568  0.00  0.00    -0.283 OA
BRANCH  17  19
ATOM     19  C   UNL d   1      57.012  -0.039  31.344  0.00  0.00     0.142 C 
BRANCH  19  20
ATOM     20  N   UNL d   1      57.406  -0.621  30.908  0.00  0.00    -0.239 NA
BRANCH  20  21
ATOM     21  C   UNL d   1      57.655  -0.463  30.140  0.00  0.00     0.099 C 
BRANCH  21  22
ATOM     22  C   UNL d   1      58.162  -0.987  29.757  0.00  0.00     0.019 A 
ATOM     23  C   UNL d   1      58.220  -1.772  30.005  0.00  0.00     0.002 A 
ATOM     24  C   UNL d   1      58.726  -2.292  29.621  0.00  0.00     0.000 A 
ATOM     25  C   UNL d   1      59.182  -2.027  28.980  0.00  0.00     0.000 A 
ATOM     26  C   UNL d   1      59.122  -1.241  28.735  0.00  0.00     0.000 A 
ATOM     27  C   UNL d   1      58.616  -0.725  29.121  0.00  0.00     0.002 A 
ENDBRANCH  21  22
ENDBRANCH  20  21
ENDBRANCH  19  20
ENDBRANCH  17  19
ENDBRANCH  16  17
ENDBRANCH   3  16
BRANCH   4  28
ATOM     28  C   UNL d   1      58.347   0.677  33.088  0.00  0.00     0.125 C 
ATOM     29  N   UNL d   1      59.166   0.631  32.956  0.00  0.00    -0.146 N 
ENDBRANCH   4  28
TORSDOF 7
ENDMDL
MODEL 2
REMARK VINA RESULT:      -0.9      0.704      2.504
REMARK  7 active torsions:
REMARK  status: ('A' for Active; 'I' for Inactive)
REMARK    1  A    between atoms: C_12  and  N_3 
REMARK    2  A    between atoms: C_10  and  C_4 
REMARK    3  A    between atoms: C_15  and  C_12 
REMARK    4  A    between atoms: N_14  and  C_21 
REMARK    5  A    between atoms: C_22  and  N_14 
REMARK    6  A    between atoms: C_21  and  C_15 
REMARK    7  A    between atoms: C_20  and  C_22 
ROOT
ATOM      1  C   UNL d   1      56.251   0.670  34.101  0.00  0.00     0.137 A 
ATOM      2  N   UNL d   1      56.449   0.674  34.914  0.00  0.00    -0.259 N 
ATOM      3  N   UNL d   1      56.853   0.669  33.530  0.00  0.00    -0.287 N 
ATOM      4  C   UNL d   1      55.457   0.666  33.869  0.00  0.00     0.054 A 
ATOM      5  C   UNL d   1      55.853   0.675  35.497  0.00  0.00     0.266 A 
ATOM      6  C   UNL d   1      57.851   0.678  34.565  0.00  0.00     0.084 A 
ATOM      7  C   UNL d   1      57.647   0.673  33.761  0.00  0.00     0.082 A 
ATOM      8  C   UNL d   1      54.851   0.666  34.446  0.00  0.00     0.009 A 
ATOM      9  C   UNL d   1      55.049   0.671  35.260  0.00  0.00     0.061 A 
ATOM     10  O   UNL d   1      56.048   0.679  36.299  0.00  0.00    -0.267 OA
ATOM     11  C   UNL d   1      58.641   0.681  34.797  0.00  0.00     0.019 A 
ATOM     12  C   UNL d   1      54.061   0.662  34.214  0.00  0.00     0.000 C 
ATOM     13  C   UNL d   1      58.250   0.673  33.190  0.00  0.00     0.019 A 
ATOM     14  C   UNL d   1      59.235   0.681  34.228  0.00  0.00     0.002 A 
ATOM     15  C   UNL d   1      59.039   0.677  33.423  0.00  0.00     0.002 A 
ENDROOT
BRANCH   3  16
ATOM     16  C   UNL d   1      56.650   0.665  32.731  0.00  0.00     0.126 C 
BRANCH  16  17
ATOM     17  C   UNL d   1      56.807  -0.004  32.276  0.00  0.00     0.232 C 
ATOM     18  O   UNL d   1      56.802  -0.756  32.618  0.00  0.00    -0.283 OA
BRANCH  17  19
ATOM     19  C   UNL d   1      56.970   0.072  31.471  0.00  0.00     0.142 C 
BRANCH  19  20
ATOM     20  N   UNL d   1      57.515  -0.435  31.111  0.00  0.00    -0.239 NA
BRANCH  20  21
ATOM     21  C   UNL d   1      57.543  -0.496  30.291  0.00  0.00     0.099 C 
BRANCH  21  22
ATOM     22  C   UNL d   1      58.176  -0.877  29.929  0.00  0.00     0.019 A 
ATOM     23  C   UNL d   1      58.899  -0.491  29.832  0.00  0.00     0.002 A 
ATOM     24  C   UNL d   1      59.529  -0.874  29.470  0.00  0.00     0.000 A 
ATOM     25  C   UNL d   1      59.438  -1.654  29.200  0.00  0.00     0.000 A 
ATOM     26  C   UNL d   1      58.714  -2.037  29.299  0.00  0.00     0.000 A 
ATOM     27  C   UNL d   1      58.087  -1.652  29.660  0.00  0.00     0.002 A 
ENDBRANCH  21  22
ENDBRANCH  20  21
ENDBRANCH  19  20
ENDBRANCH  17  19
ENDBRANCH  16  17
ENDBRANCH   3  16
BRANCH   4  28
ATOM     28  C   UNL d   1      55.262   0.661  33.069  0.00  0.00     0.125 C 
ATOM     29  N   UNL d   1      54.464   0.682  32.838  0.00  0.00    -0.146 N 
ENDBRANCH   4  28
TORSDOF 7
ENDMDL
