MODEL 1
REMARK VINA RESULT:      -7.9      0.000      0.000
REMARK  8 active torsions:
REMARK  status: ('A' for Active; 'I' for Inactive)
REMARK    1  A    between atoms: C_7  and  N_1 
REMARK    2  A    between atoms: C_23  and  C_5 
REMARK    3  A    between atoms: C_22  and  C_6 
REMARK    4  A    between atoms: C_8  and  C_7 
REMARK       I    between atoms: N_10  and  C_8 
REMARK    5  A    between atoms: C_9  and  C_13 
REMARK    6  A    between atoms: O_19  and  C_9 
REMARK    7  A    between atoms: C_18  and  N_10 
REMARK    8  A    between atoms: C_24  and  O_19 
ROOT
ATOM      1  C   UNL d   1      51.847  33.430  52.624  0.00  0.00     0.297 C 
ATOM      2  N   UNL d   1      51.532  34.043  52.164  0.00  0.00    -0.207 NA
ATOM      3  O   UNL d   1      51.423  33.146  53.272  0.00  0.00    -0.264 OA
ENDROOT
BRANCH   1   4
ATOM      4  C   UNL d   1      52.573  33.104  52.442  0.00  0.00     0.148 C 
BRANCH   4   5
ATOM      5  N   UNL d   1      52.971  32.644  53.000  0.00  0.00    -0.235 N 
ATOM      6  C   UNL d   1      53.494  33.004  53.532  0.00  0.00     0.273 A 
ATOM      7  C   UNL d   1      53.888  32.549  54.084  0.00  0.00     0.086 A 
ATOM      8  O   UNL d   1      53.616  33.821  53.501  0.00  0.00    -0.266 OA
ATOM      9  S   UNL d   1      53.774  31.738  54.121  0.00  0.00    -0.077 SA
ATOM     10  C   UNL d   1      53.257  31.378  53.597  0.00  0.00     0.086 A 
ATOM     11  C   UNL d   1      52.851  31.824  53.033  0.00  0.00     0.273 A 
ATOM     12  O   UNL d   1      52.331  31.465  52.506  0.00  0.00    -0.266 OA
BRANCH   7  13
ATOM     13  C   UNL d   1      54.414  32.912  54.617  0.00  0.00     0.011 C 
ATOM     14  C   UNL d   1      54.267  32.878  55.428  0.00  0.00     0.001 C 
ENDBRANCH   7  13
BRANCH  10  15
ATOM     15  C   UNL d   1      53.137  30.563  53.628  0.00  0.00     0.011 C 
ATOM     16  C   UNL d   1      53.785  30.054  53.665  0.00  0.00     0.001 C 
ENDBRANCH  10  15
ENDBRANCH   4   5
ENDBRANCH   1   4
BRANCH   2  17
ATOM     17  C   UNL d   1      50.796  34.369  52.354  0.00  0.00     0.085 A 
ATOM     18  C   UNL d   1      50.694  34.769  53.068  0.00  0.00     0.019 A 
ATOM     19  C   UNL d   1      49.957  35.088  53.242  0.00  0.00     0.007 A 
ATOM     20  C   UNL d   1      49.329  35.014  52.722  0.00  0.00     0.064 A 
ATOM     21  C   UNL d   1      49.435  34.612  52.009  0.00  0.00     0.007 A 
ATOM     22  C   UNL d   1      50.171  34.287  51.820  0.00  0.00     0.019 A 
BRANCH  20  23
ATOM     23  C   UNL d   1      48.590  35.338  52.907  0.00  0.00     0.300 C 
ATOM     24  O   UNL d   1      48.386  35.464  53.697  0.00  0.00    -0.259 OA
BRANCH  23  25
ATOM     25  O   UNL d   1      48.066  35.534  52.315  0.00  0.00    -0.271 OA
BRANCH  25  26
ATOM     26  C   UNL d   1      47.386  35.967  52.476  0.00  0.00     0.126 C 
ATOM     27  C   UNL d   1      46.863  36.164  51.883  0.00  0.00     0.029 C 
ENDBRANCH  25  26
ENDBRANCH  23  25
ENDBRANCH  20  23
ENDBRANCH   2  17
TORSDOF 8
ENDMDL
MODEL 2
REMARK VINA RESULT:      -7.9      0.031      1.534
REMARK  8 active torsions:
REMARK  status: ('A' for Active; 'I' for Inactive)
REMARK    1  A    between atoms: C_7  and  N_1 
REMARK    2  A    between atoms: C_23  and  C_5 
REMARK    3  A    between atoms: C_22  and  C_6 
REMARK    4  A    between atoms: C_8  and  C_7 
REMARK       I    between atoms: N_10  and  C_8 
REMARK    5  A    between atoms: C_9  and  C_13 
REMARK    6  A    between atoms: O_19  and  C_9 
REMARK    7  A    between atoms: C_18  and  N_10 
REMARK    8  A    between atoms: C_24  and  O_19 
ROOT
ATOM      1  C   UNL d   1      51.826  33.409  52.621  0.00  0.00     0.297 C 
ATOM      2  N   UNL d   1      51.516  34.029  52.169  0.00  0.00    -0.207 NA
ATOM      3  O   UNL d   1      51.404  33.125  53.271  0.00  0.00    -0.264 OA
ENDROOT
BRANCH   1   4
ATOM      4  C   UNL d   1      52.547  33.075  52.432  0.00  0.00     0.148 C 
BRANCH   4   5
ATOM      5  N   UNL d   1      52.958  32.632  52.994  0.00  0.00    -0.235 N 
ATOM      6  C   UNL d   1      52.846  31.813  53.033  0.00  0.00     0.273 A 
ATOM      7  C   UNL d   1      53.254  31.374  53.589  0.00  0.00     0.086 A 
ATOM      8  O   UNL d   1      52.324  31.442  52.510  0.00  0.00    -0.266 OA
ATOM      9  S   UNL d   1      53.773  31.733  54.111  0.00  0.00    -0.077 SA
ATOM     10  C   UNL d   1      53.886  32.544  54.076  0.00  0.00     0.086 A 
ATOM     11  C   UNL d   1      53.482  33.001  53.520  0.00  0.00     0.273 A 
ATOM     12  O   UNL d   1      53.594  33.816  53.482  0.00  0.00    -0.266 OA
BRANCH   7  13
ATOM     13  C   UNL d   1      53.140  30.551  53.628  0.00  0.00     0.011 C 
ATOM     14  C   UNL d   1      53.792  30.044  53.624  0.00  0.00     0.001 C 
ENDBRANCH   7  13
BRANCH  10  15
ATOM     15  C   UNL d   1      54.407  32.912  54.598  0.00  0.00     0.011 C 
ATOM     16  C   UNL d   1      54.269  32.873  55.411  0.00  0.00     0.001 C 
ENDBRANCH  10  15
ENDBRANCH   4   5
ENDBRANCH   1   4
BRANCH   2  17
ATOM     17  C   UNL d   1      50.785  34.363  52.366  0.00  0.00     0.085 A 
ATOM     18  C   UNL d   1      50.696  34.768  53.079  0.00  0.00     0.019 A 
ATOM     19  C   UNL d   1      49.964  35.093  53.261  0.00  0.00     0.007 A 
ATOM     20  C   UNL d   1      49.328  35.022  52.751  0.00  0.00     0.064 A 
ATOM     21  C   UNL d   1      49.422  34.617  52.038  0.00  0.00     0.007 A 
ATOM     22  C   UNL d   1      50.152  34.283  51.841  0.00  0.00     0.019 A 
BRANCH  20  23
ATOM     23  C   UNL d   1      48.595  35.354  52.944  0.00  0.00     0.300 C 
ATOM     24  O   UNL d   1      48.400  35.481  53.735  0.00  0.00    -0.259 OA
BRANCH  23  25
ATOM     25  O   UNL d   1      48.067  35.556  52.357  0.00  0.00    -0.271 OA
BRANCH  25  26
ATOM     26  C   UNL d   1      47.394  35.997  52.525  0.00  0.00     0.126 C 
ATOM     27  C   UNL d   1      46.856  36.182  51.942  0.00  0.00     0.029 C 
ENDBRANCH  25  26
ENDBRANCH  23  25
ENDBRANCH  20  23
ENDBRANCH   2  17
TORSDOF 8
ENDMDL
MODEL 3
REMARK VINA RESULT:      -6.0      1.679      5.437
REMARK  8 active torsions:
REMARK  status: ('A' for Active; 'I' for Inactive)
REMARK    1  A    between atoms: C_7  and  N_1 
REMARK    2  A    between atoms: C_23  and  C_5 
REMARK    3  A    between atoms: C_22  and  C_6 
REMARK    4  A    between atoms: C_8  and  C_7 
REMARK       I    between atoms: N_10  and  C_8 
REMARK    5  A    between atoms: C_9  and  C_13 
REMARK    6  A    between atoms: O_19  and  C_9 
REMARK    7  A    between atoms: C_18  and  N_10 
REMARK    8  A    between atoms: C_24  and  O_19 
ROOT
ATOM      1  C   UNL d   1      51.884  33.623  52.953  0.00  0.00     0.297 C 
ATOM      2  N   UNL d   1      52.645  33.348  52.779  0.00  0.00    -0.207 NA
ATOM      3  O   UNL d   1      51.356  33.136  53.359  0.00  0.00    -0.264 OA
ENDROOT
BRANCH   1   4
ATOM      4  C   UNL d   1      51.649  34.371  52.727  0.00  0.00     0.148 C 
BRANCH   4   5
ATOM      5  N   UNL d   1      50.860  34.516  52.534  0.00  0.00    -0.235 N 
ATOM      6  C   UNL d   1      50.346  34.825  53.106  0.00  0.00     0.273 A 
ATOM      7  C   UNL d   1      49.565  34.969  52.915  0.00  0.00     0.086 A 
ATOM      8  O   UNL d   1      50.626  34.986  53.867  0.00  0.00    -0.266 OA
ATOM      9  S   UNL d   1      49.279  34.813  52.163  0.00  0.00    -0.077 SA
ATOM     10  C   UNL d   1      49.784  34.507  51.594  0.00  0.00     0.086 A 
ATOM     11  C   UNL d   1      50.576  34.356  51.771  0.00  0.00     0.273 A 
ATOM     12  O   UNL d   1      51.085  34.049  51.202  0.00  0.00    -0.266 OA
BRANCH   7  13
ATOM     13  C   UNL d   1      49.051  35.279  53.490  0.00  0.00     0.011 C 
ATOM     14  C   UNL d   1      48.432  35.777  53.266  0.00  0.00     0.001 C 
ENDBRANCH   7  13
BRANCH  10  15
ATOM     15  C   UNL d   1      49.504  34.347  50.835  0.00  0.00     0.011 C 
ATOM     16  C   UNL d   1      48.698  34.422  50.672  0.00  0.00     0.001 C 
ENDBRANCH  10  15
ENDBRANCH   4   5
ENDBRANCH   1   4
BRANCH   2  17
ATOM     17  C   UNL d   1      52.876  32.589  53.012  0.00  0.00     0.085 A 
ATOM     18  C   UNL d   1      53.374  32.490  53.662  0.00  0.00     0.019 A 
ATOM     19  C   UNL d   1      53.595  31.729  53.881  0.00  0.00     0.007 A 
ATOM     20  C   UNL d   1      53.330  31.075  53.467  0.00  0.00     0.064 A 
ATOM     21  C   UNL d   1      52.833  31.178  52.817  0.00  0.00     0.007 A 
ATOM     22  C   UNL d   1      52.602  31.937  52.584  0.00  0.00     0.019 A 
BRANCH  20  23
ATOM     23  C   UNL d   1      53.559  30.313  53.696  0.00  0.00     0.300 C 
ATOM     24  O   UNL d   1      54.149  29.920  53.274  0.00  0.00    -0.259 OA
BRANCH  23  25
ATOM     25  O   UNL d   1      53.205  29.951  54.334  0.00  0.00    -0.271 OA
BRANCH  25  26
ATOM     26  C   UNL d   1      53.272  29.140  54.453  0.00  0.00     0.126 C 
ATOM     27  C   UNL d   1      53.255  28.823  55.204  0.00  0.00     0.029 C 
ENDBRANCH  25  26
ENDBRANCH  23  25
ENDBRANCH  20  23
ENDBRANCH   2  17
TORSDOF 8
ENDMDL
MODEL 4
REMARK VINA RESULT:      -5.7      2.148      6.086
REMARK  8 active torsions:
REMARK  status: ('A' for Active; 'I' for Inactive)
REMARK    1  A    between atoms: C_7  and  N_1 
REMARK    2  A    between atoms: C_23  and  C_5 
REMARK    3  A    between atoms: C_22  and  C_6 
REMARK    4  A    between atoms: C_8  and  C_7 
REMARK       I    between atoms: N_10  and  C_8 
REMARK    5  A    between atoms: C_9  and  C_13 
REMARK    6  A    between atoms: O_19  and  C_9 
REMARK    7  A    between atoms: C_18  and  N_10 
REMARK    8  A    between atoms: C_24  and  O_19 
ROOT
ATOM      1  C   UNL d   1      49.192  35.261  52.575  0.00  0.00     0.297 C 
ATOM      2  N   UNL d   1      49.958  35.308  52.886  0.00  0.00    -0.207 NA
ATOM      3  O   UNL d   1      48.903  34.536  52.307  0.00  0.00    -0.264 OA
ENDROOT
BRANCH   1   4
ATOM      4  C   UNL d   1      48.719  35.925  52.531  0.00  0.00     0.148 C 
BRANCH   4   5
ATOM      5  N   UNL d   1      47.901  35.856  52.613  0.00  0.00    -0.235 N 
ATOM      6  C   UNL d   1      47.551  35.967  53.356  0.00  0.00     0.273 A 
ATOM      7  C   UNL d   1      46.741  35.899  53.438  0.00  0.00     0.086 A 
ATOM      8  O   UNL d   1      48.023  36.146  54.011  0.00  0.00    -0.266 OA
ATOM      9  S   UNL d   1      46.266  35.722  52.795  0.00  0.00    -0.077 SA
ATOM     10  C   UNL d   1      46.608  35.612  52.058  0.00  0.00     0.086 A 
ATOM     11  C   UNL d   1      47.424  35.677  51.959  0.00  0.00     0.273 A 
ATOM     12  O   UNL d   1      47.770  35.566  51.220  0.00  0.00    -0.266 OA
BRANCH   7  13
ATOM     13  C   UNL d   1      46.392  36.011  54.185  0.00  0.00     0.011 C 
ATOM     14  C   UNL d   1      45.717  35.584  54.393  0.00  0.00     0.001 C 
ENDBRANCH   7  13
BRANCH  10  15
ATOM     15  C   UNL d   1      46.136  35.433  51.405  0.00  0.00     0.011 C 
ATOM     16  C   UNL d   1      45.465  35.887  51.248  0.00  0.00     0.001 C 
ENDBRANCH  10  15
ENDBRANCH   4   5
ENDBRANCH   1   4
BRANCH   2  17
ATOM     17  C   UNL d   1      50.431  34.632  52.928  0.00  0.00     0.085 A 
ATOM     18  C   UNL d   1      50.380  34.131  53.582  0.00  0.00     0.019 A 
ATOM     19  C   UNL d   1      50.857  33.463  53.609  0.00  0.00     0.007 A 
ATOM     20  C   UNL d   1      51.377  33.288  53.002  0.00  0.00     0.064 A 
ATOM     21  C   UNL d   1      51.426  33.791  52.349  0.00  0.00     0.007 A 
ATOM     22  C   UNL d   1      50.952  34.467  52.307  0.00  0.00     0.019 A 
BRANCH  20  23
ATOM     23  C   UNL d   1      51.854  32.612  53.039  0.00  0.00     0.300 C 
ATOM     24  O   UNL d   1      51.521  31.870  52.898  0.00  0.00    -0.259 OA
BRANCH  23  25
ATOM     25  O   UNL d   1      52.647  32.676  53.212  0.00  0.00    -0.271 OA
BRANCH  25  26
ATOM     26  C   UNL d   1      53.119  32.008  53.296  0.00  0.00     0.126 C 
ATOM     27  C   UNL d   1      53.887  32.066  53.560  0.00  0.00     0.029 C 
ENDBRANCH  25  26
ENDBRANCH  23  25
ENDBRANCH  20  23
ENDBRANCH   2  17
TORSDOF 8
ENDMDL
MODEL 5
REMARK VINA RESULT:      -5.4      1.937      5.528
REMARK  8 active torsions:
REMARK  status: ('A' for Active; 'I' for Inactive)
REMARK    1  A    between atoms: C_7  and  N_1 
REMARK    2  A    between atoms: C_23  and  C_5 
REMARK    3  A    between atoms: C_22  and  C_6 
REMARK    4  A    between atoms: C_8  and  C_7 
REMARK       I    between atoms: N_10  and  C_8 
REMARK    5  A    between atoms: C_9  and  C_13 
REMARK    6  A    between atoms: O_19  and  C_9 
REMARK    7  A    between atoms: C_18  and  N_10 
REMARK    8  A    between atoms: C_24  and  O_19 
ROOT
ATOM      1  C   UNL d   1      52.983  32.319  52.955  0.00  0.00     0.297 C 
ATOM      2  N   UNL d   1      53.015  31.576  52.590  0.00  0.00    -0.207 NA
ATOM      3  O   UNL d   1      53.015  32.373  53.777  0.00  0.00    -0.264 OA
ENDROOT
BRANCH   1   4
ATOM      4  C   UNL d   1      52.921  33.000  52.509  0.00  0.00     0.148 C 
BRANCH   4   5
ATOM      5  N   UNL d   1      52.511  33.652  52.804  0.00  0.00    -0.235 N 
ATOM      6  C   UNL d   1      51.708  33.749  52.627  0.00  0.00     0.273 A 
ATOM      7  C   UNL d   1      51.302  34.395  52.920  0.00  0.00     0.086 A 
ATOM      8  O   UNL d   1      51.320  33.191  52.155  0.00  0.00    -0.266 OA
ATOM      9  S   UNL d   1      51.678  34.952  53.388  0.00  0.00    -0.077 SA
ATOM     10  C   UNL d   1      52.473  34.860  53.566  0.00  0.00     0.086 A 
ATOM     11  C   UNL d   1      52.897  34.213  53.278  0.00  0.00     0.273 A 
ATOM     12  O   UNL d   1      53.695  34.119  53.455  0.00  0.00    -0.266 OA
BRANCH   7  13
ATOM     13  C   UNL d   1      50.495  34.489  52.741  0.00  0.00     0.011 C 
ATOM     14  C   UNL d   1      49.985  34.822  53.299  0.00  0.00     0.001 C 
ENDBRANCH   7  13
BRANCH  10  15
ATOM     15  C   UNL d   1      52.859  35.417  54.036  0.00  0.00     0.011 C 
ATOM     16  C   UNL d   1      52.607  35.543  54.812  0.00  0.00     0.001 C 
ENDBRANCH  10  15
ENDBRANCH   4   5
ENDBRANCH   1   4
BRANCH   2  17
ATOM     17  C   UNL d   1      53.078  30.891  53.048  0.00  0.00     0.085 A 
ATOM     18  C   UNL d   1      53.796  30.699  53.407  0.00  0.00     0.019 A 
ATOM     19  C   UNL d   1      53.843  30.015  53.859  0.00  0.00     0.007 A 
ATOM     20  C   UNL d   1      53.195  29.526  53.958  0.00  0.00     0.064 A 
ATOM     21  C   UNL d   1      52.479  29.721  53.597  0.00  0.00     0.007 A 
ATOM     22  C   UNL d   1      52.415  30.406  53.139  0.00  0.00     0.019 A 
BRANCH  20  23
ATOM     23  C   UNL d   1      53.253  28.838  54.415  0.00  0.00     0.300 C 
ATOM     24  O   UNL d   1      53.593  28.160  54.092  0.00  0.00    -0.259 OA
BRANCH  23  25
ATOM     25  O   UNL d   1      52.976  28.829  55.182  0.00  0.00    -0.271 OA
BRANCH  25  26
ATOM     26  C   UNL d   1      53.371  28.412  55.770  0.00  0.00     0.126 C 
ATOM     27  C   UNL d   1      53.304  28.625  56.554  0.00  0.00     0.029 C 
ENDBRANCH  25  26
ENDBRANCH  23  25
ENDBRANCH  20  23
ENDBRANCH   2  17
TORSDOF 8
ENDMDL
