MODEL 1
REMARK VINA RESULT:      23.9      0.000      0.000
REMARK  5 active torsions:
REMARK  status: ('A' for Active; 'I' for Inactive)
REMARK    1  A    between atoms: N_4  and  C_1 
REMARK       I    between atoms: C_7  and  N_4 
REMARK    2  A    between atoms: C_8  and  C_7 
REMARK    3  A    between atoms: C_12  and  C_8 
REMARK    4  A    between atoms: S_10  and  C_12 
REMARK    5  A    between atoms: C_11  and  S_10 
ROOT
ATOM      1  C   UNL d   1      13.055  11.780  -3.666  0.00  0.00     0.070 C 
ENDROOT
BRANCH   1   2
ATOM      2  C   UNL d   1      13.538  11.787  -3.006  0.00  0.00     0.281 C 
ATOM      3  N   UNL d   1      13.219  11.782  -2.247  0.00  0.00    -0.187 NA
ATOM      4  O   UNL d   1      14.361  11.800  -3.122  0.00  0.00    -0.265 OA
BRANCH   3   5
ATOM      5  C   UNL d   1      13.748  11.790  -1.548  0.00  0.00     0.194 A 
ATOM      6  N   UNL d   1      13.356  11.797  -0.822  0.00  0.00    -0.107 NA
ATOM      7  O   UNL d   1      13.916  11.804  -0.227  0.00  0.00    -0.210 OA
ATOM      8  C   UNL d   1      14.663  11.802  -0.588  0.00  0.00     0.128 A 
ATOM      9  C   UNL d   1      14.544  11.793  -1.408  0.00  0.00     0.068 A 
ATOM     10  C   UNL d   1      15.383  11.807  -0.197  0.00  0.00     0.029 C 
ENDBRANCH   3   5
ENDBRANCH   1   2
BRANCH   1  11
ATOM     11  C   UNL d   1      12.777  12.470  -4.011  0.00  0.00     0.040 C 
BRANCH  11  12
ATOM     12  S   UNL d   1      13.095  12.737  -4.724  0.00  0.00    -0.086 SA
BRANCH  12  13
ATOM     13  C   UNL d   1      13.279  13.549  -4.817  0.00  0.00     0.029 A 
ATOM     14  C   UNL d   1      13.935  13.774  -5.265  0.00  0.00     0.007 A 
ATOM     15  C   UNL d   1      14.119  14.587  -5.358  0.00  0.00     0.012 A 
ATOM     16  C   UNL d   1      13.639  15.153  -5.000  0.00  0.00     0.058 A 
ATOM     17  C   UNL d   1      12.984  14.923  -4.553  0.00  0.00     0.012 A 
ATOM     18 CL   UNL d   1      13.824  15.962  -5.094  0.00  0.00    -0.082 Cl
ATOM     19  C   UNL d   1      12.805  14.122  -4.463  0.00  0.00     0.007 A 
ENDBRANCH  12  13
ENDBRANCH  11  12
ENDBRANCH   1  11
TORSDOF 5
ENDMDL
MODEL 2
REMARK VINA RESULT:      24.0      3.288      4.427
REMARK  5 active torsions:
REMARK  status: ('A' for Active; 'I' for Inactive)
REMARK    1  A    between atoms: N_4  and  C_1 
REMARK       I    between atoms: C_7  and  N_4 
REMARK    2  A    between atoms: C_8  and  C_7 
REMARK    3  A    between atoms: C_12  and  C_8 
REMARK    4  A    between atoms: S_10  and  C_12 
REMARK    5  A    between atoms: C_11  and  S_10 
ROOT
ATOM      1  C   UNL d   1      15.327  13.506  -0.265  0.00  0.00     0.070 C 
ENDROOT
BRANCH   1   2
ATOM      2  C   UNL d   1      15.178  14.307  -0.330  0.00  0.00     0.281 C 
ATOM      3  N   UNL d   1      15.722  14.812  -0.689  0.00  0.00    -0.187 NA
ATOM      4  O   UNL d   1      14.463  14.600  -0.024  0.00  0.00    -0.265 OA
BRANCH   3   5
ATOM      5  C   UNL d   1      15.550  15.669  -0.752  0.00  0.00     0.194 A 
ATOM      6  N   UNL d   1      15.923  16.135  -0.183  0.00  0.00    -0.107 NA
ATOM      7  O   UNL d   1      15.712  16.915  -0.311  0.00  0.00    -0.210 OA
ATOM      8  C   UNL d   1      15.204  16.931  -0.966  0.00  0.00     0.128 A 
ATOM      9  C   UNL d   1      15.112  16.151  -1.230  0.00  0.00     0.068 A 
ATOM     10  C   UNL d   1      14.859  17.602  -1.287  0.00  0.00     0.029 C 
ENDBRANCH   3   5
ENDBRANCH   1   2
BRANCH   1  11
ATOM     11  C   UNL d   1      14.745  12.942  -0.389  0.00  0.00     0.040 C 
BRANCH  11  12
ATOM     12  S   UNL d   1      14.886  12.300  -0.888  0.00  0.00    -0.086 SA
BRANCH  12  13
ATOM     13  C   UNL d   1      14.389  12.173  -1.551  0.00  0.00     0.029 A 
ATOM     14  C   UNL d   1      13.569  12.155  -1.454  0.00  0.00     0.007 A 
ATOM     15  C   UNL d   1      13.073  12.028  -2.117  0.00  0.00     0.012 A 
ATOM     16  C   UNL d   1      13.411  11.922  -2.861  0.00  0.00     0.058 A 
ATOM     17  C   UNL d   1      14.232  11.940  -2.953  0.00  0.00     0.012 A 
ATOM     18 CL   UNL d   1      12.915  11.796  -3.520  0.00  0.00    -0.082 Cl
ATOM     19  C   UNL d   1      14.719  12.066  -2.298  0.00  0.00     0.007 A 
ENDBRANCH  12  13
ENDBRANCH  11  12
ENDBRANCH   1  11
TORSDOF 5
ENDMDL
MODEL 3
REMARK VINA RESULT:      24.6      2.890      4.005
REMARK  5 active torsions:
REMARK  status: ('A' for Active; 'I' for Inactive)
REMARK    1  A    between atoms: N_4  and  C_1 
REMARK       I    between atoms: C_7  and  N_4 
REMARK    2  A    between atoms: C_8  and  C_7 
REMARK    3  A    between atoms: C_12  and  C_8 
REMARK    4  A    between atoms: S_10  and  C_12 
REMARK    5  A    between atoms: C_11  and  S_10 
ROOT
ATOM      1  C   UNL d   1      14.705  12.862  -0.733  0.00  0.00     0.070 C 
ENDROOT
BRANCH   1   2
ATOM      2  C   UNL d   1      14.445  12.542  -1.439  0.00  0.00     0.281 C 
ATOM      3  N   UNL d   1      13.937  12.962  -1.933  0.00  0.00    -0.187 NA
ATOM      4  O   UNL d   1      14.707  11.781  -1.646  0.00  0.00    -0.265 OA
BRANCH   3   5
ATOM      5  C   UNL d   1      13.666  12.608  -2.687  0.00  0.00     0.194 A 
ATOM      6  N   UNL d   1      13.002  12.122  -2.618  0.00  0.00    -0.107 NA
ATOM      7  O   UNL d   1      12.816  11.834  -3.360  0.00  0.00    -0.210 OA
ATOM      8  C   UNL d   1      13.369  12.144  -3.894  0.00  0.00     0.128 A 
ATOM      9  C   UNL d   1      13.891  12.623  -3.463  0.00  0.00     0.068 A 
ATOM     10  C   UNL d   1      13.389  11.999  -4.701  0.00  0.00     0.029 C 
ENDBRANCH   3   5
ENDBRANCH   1   2
BRANCH   1  11
ATOM     11  C   UNL d   1      14.526  13.630  -0.510  0.00  0.00     0.040 C 
BRANCH  11  12
ATOM     12  S   UNL d   1      15.045  14.056  -0.029  0.00  0.00    -0.086 SA
BRANCH  12  13
ATOM     13  C   UNL d   1      15.212  14.858  -0.209  0.00  0.00     0.029 A 
ATOM     14  C   UNL d   1      15.949  15.178  -0.014  0.00  0.00     0.007 A 
ATOM     15  C   UNL d   1      16.115  15.979  -0.194  0.00  0.00     0.012 A 
ATOM     16  C   UNL d   1      15.540  16.440  -0.564  0.00  0.00     0.058 A 
ATOM     17  C   UNL d   1      14.806  16.115  -0.756  0.00  0.00     0.012 A 
ATOM     18 CL   UNL d   1      15.709  17.238  -0.742  0.00  0.00    -0.082 Cl
ATOM     19  C   UNL d   1      14.644  15.325  -0.578  0.00  0.00     0.007 A 
ENDBRANCH  12  13
ENDBRANCH  11  12
ENDBRANCH   1  11
TORSDOF 5
ENDMDL
MODEL 4
REMARK VINA RESULT:      25.9      2.419      4.450
REMARK  5 active torsions:
REMARK  status: ('A' for Active; 'I' for Inactive)
REMARK    1  A    between atoms: N_4  and  C_1 
REMARK       I    between atoms: C_7  and  N_4 
REMARK    2  A    between atoms: C_8  and  C_7 
REMARK    3  A    between atoms: C_12  and  C_8 
REMARK    4  A    between atoms: S_10  and  C_12 
REMARK    5  A    between atoms: C_11  and  S_10 
ROOT
ATOM      1  C   UNL d   1      13.013  12.490  -4.093  0.00  0.00     0.070 C 
ENDROOT
BRANCH   1   2
ATOM      2  C   UNL d   1      13.275  13.150  -4.499  0.00  0.00     0.281 C 
ATOM      3  N   UNL d   1      13.230  13.900  -4.162  0.00  0.00    -0.187 NA
ATOM      4  O   UNL d   1      13.588  13.044  -5.262  0.00  0.00    -0.265 OA
BRANCH   3   5
ATOM      5  C   UNL d   1      13.514  14.599  -4.607  0.00  0.00     0.194 A 
ATOM      6  N   UNL d   1      13.854  15.188  -4.139  0.00  0.00    -0.107 NA
ATOM      7  O   UNL d   1      14.090  15.799  -4.628  0.00  0.00    -0.210 OA
ATOM      8  C   UNL d   1      13.895  15.588  -5.405  0.00  0.00     0.128 A 
ATOM      9  C   UNL d   1      13.537  14.841  -5.378  0.00  0.00     0.068 A 
ATOM     10  C   UNL d   1      14.033  16.042  -6.073  0.00  0.00     0.029 C 
ENDBRANCH   3   5
ENDBRANCH   1   2
BRANCH   1  11
ATOM     11  C   UNL d   1      12.967  12.470  -3.275  0.00  0.00     0.040 C 
BRANCH  11  12
ATOM     12  S   UNL d   1      13.152  11.780  -2.863  0.00  0.00    -0.086 SA
BRANCH  12  13
ATOM     13  C   UNL d   1      13.583  11.828  -2.145  0.00  0.00     0.029 A 
ATOM     14  C   UNL d   1      14.406  11.900  -2.163  0.00  0.00     0.007 A 
ATOM     15  C   UNL d   1      14.836  11.948  -1.446  0.00  0.00     0.012 A 
ATOM     16  C   UNL d   1      14.431  11.922  -0.729  0.00  0.00     0.058 A 
ATOM     17  C   UNL d   1      13.608  11.850  -0.716  0.00  0.00     0.012 A 
ATOM     18 CL   UNL d   1      14.862  11.970  -0.015  0.00  0.00    -0.082 Cl
ATOM     19  C   UNL d   1      13.186  11.803  -1.424  0.00  0.00     0.007 A 
ENDBRANCH  12  13
ENDBRANCH  11  12
ENDBRANCH   1  11
TORSDOF 5
ENDMDL
