MODEL 1
REMARK VINA RESULT:      -5.5      0.000      0.000
REMARK  2 active torsions:
REMARK  status: ('A' for Active; 'I' for Inactive)
REMARK    1  A    between atoms: C_6  and  N_1 
REMARK    2  A    between atoms: C_7  and  C_6 
ROOT
ATOM      1  N   UNL d   1     -41.462-123.013 -53.005  0.00  0.00    -0.287 N 
ATOM      2  N   UNL d   1     -41.272-123.817 -51.934  0.00  0.00    -0.224 NA
ATOM      3  C   UNL d   1     -41.411-123.804 -52.771  0.00  0.00     0.183 A 
ATOM      4  C   UNL d   1     -41.361-122.544 -52.356  0.00  0.00     0.083 A 
ATOM      5  C   UNL d   1     -41.241-123.052 -51.679  0.00  0.00     0.099 A 
ATOM      6  C   UNL d   1     -41.358-121.725 -52.262  0.00  0.00     0.019 A 
ATOM      7  C   UNL d   1     -41.123-122.681 -50.938  0.00  0.00     0.021 A 
ATOM      8  C   UNL d   1     -41.239-121.395 -51.515  0.00  0.00     0.002 A 
ATOM      9  C   UNL d   1     -41.123-121.885 -50.862  0.00  0.00     0.002 A 
ENDROOT
BRANCH   1  10
ATOM     10  C   UNL d   1     -41.522-122.281 -53.298  0.00  0.00     0.082 C 
BRANCH  10  11
ATOM     11  C   UNL d   1     -41.725-122.188 -54.092  0.00  0.00     0.018 A 
ATOM     12  C   UNL d   1     -42.476-121.917 -54.298  0.00  0.00     0.002 A 
ATOM     13  C   UNL d   1     -42.682-121.823 -55.095  0.00  0.00     0.000 A 
ATOM     14  C   UNL d   1     -42.133-122.000 -55.684  0.00  0.00     0.000 A 
ATOM     15  C   UNL d   1     -41.377-122.272 -55.476  0.00  0.00     0.000 A 
ATOM     16  C   UNL d   1     -41.175-122.365 -54.681  0.00  0.00     0.002 A 
ENDBRANCH  10  11
ENDBRANCH   1  10
TORSDOF 2
ENDMDL
MODEL 2
REMARK VINA RESULT:      -4.9      1.568      4.063
REMARK  2 active torsions:
REMARK  status: ('A' for Active; 'I' for Inactive)
REMARK    1  A    between atoms: C_6  and  N_1 
REMARK    2  A    between atoms: C_7  and  C_6 
ROOT
ATOM      1  N   UNL d   1     -41.543-122.243 -50.983  0.00  0.00    -0.287 N 
ATOM      2  N   UNL d   1     -41.256-121.415 -52.012  0.00  0.00    -0.224 NA
ATOM      3  C   UNL d   1     -41.436-121.449 -51.184  0.00  0.00     0.183 A 
ATOM      4  C   UNL d   1     -41.437-122.694 -51.645  0.00  0.00     0.083 A 
ATOM      5  C   UNL d   1     -41.256-122.170 -52.295  0.00  0.00     0.099 A 
ATOM      6  C   UNL d   1     -41.476-123.508 -51.769  0.00  0.00     0.019 A 
ATOM      7  C   UNL d   1     -41.124-122.521 -53.043  0.00  0.00     0.021 A 
ATOM      8  C   UNL d   1     -41.340-123.817 -52.522  0.00  0.00     0.002 A 
ATOM      9  C   UNL d   1     -41.165-123.312 -53.150  0.00  0.00     0.002 A 
ENDROOT
BRANCH   1  10
ATOM     10  C   UNL d   1     -41.658-122.981 -50.721  0.00  0.00     0.082 C 
BRANCH  10  11
ATOM     11  C   UNL d   1     -41.843-123.094 -49.926  0.00  0.00     0.018 A 
ATOM     12  C   UNL d   1     -42.617-122.985 -49.662  0.00  0.00     0.002 A 
ATOM     13  C   UNL d   1     -42.805-123.098 -48.862  0.00  0.00     0.000 A 
ATOM     14  C   UNL d   1     -42.215-123.320 -48.330  0.00  0.00     0.000 A 
ATOM     15  C   UNL d   1     -41.438-123.430 -48.597  0.00  0.00     0.000 A 
ATOM     16  C   UNL d   1     -41.253-123.316 -49.393  0.00  0.00     0.002 A 
ENDBRANCH  10  11
ENDBRANCH   1  10
TORSDOF 2
ENDMDL
MODEL 3
REMARK VINA RESULT:      -4.8      0.685      3.219
REMARK  2 active torsions:
REMARK  status: ('A' for Active; 'I' for Inactive)
REMARK    1  A    between atoms: C_6  and  N_1 
REMARK    2  A    between atoms: C_7  and  C_6 
ROOT
ATOM      1  N   UNL d   1     -41.402-123.102 -53.254  0.00  0.00    -0.287 N 
ATOM      2  N   UNL d   1     -41.241-123.797 -54.403  0.00  0.00    -0.224 NA
ATOM      3  C   UNL d   1     -41.125-123.816 -53.562  0.00  0.00     0.183 A 
ATOM      4  C   UNL d   1     -41.680-122.649 -53.862  0.00  0.00     0.083 A 
ATOM      5  C   UNL d   1     -41.579-123.088 -54.587  0.00  0.00     0.099 A 
ATOM      6  C   UNL d   1     -42.016-121.896 -53.880  0.00  0.00     0.019 A 
ATOM      7  C   UNL d   1     -41.833-122.722 -55.296  0.00  0.00     0.021 A 
ATOM      8  C   UNL d   1     -42.255-121.566 -54.597  0.00  0.00     0.002 A 
ATOM      9  C   UNL d   1     -42.157-121.991 -55.298  0.00  0.00     0.002 A 
ENDROOT
BRANCH   1  10
ATOM     10  C   UNL d   1     -41.647-122.442 -52.892  0.00  0.00     0.082 C 
BRANCH  10  11
ATOM     11  C   UNL d   1     -41.582-122.394 -52.072  0.00  0.00     0.018 A 
ATOM     12  C   UNL d   1     -41.196-121.751 -51.725  0.00  0.00     0.002 A 
ATOM     13  C   UNL d   1     -41.129-121.700 -50.901  0.00  0.00     0.000 A 
ATOM     14  C   UNL d   1     -41.449-122.294 -50.426  0.00  0.00     0.000 A 
ATOM     15  C   UNL d   1     -41.835-122.939 -50.775  0.00  0.00     0.000 A 
ATOM     16  C   UNL d   1     -41.901-122.988 -51.597  0.00  0.00     0.002 A 
ENDBRANCH  10  11
ENDBRANCH   1  10
TORSDOF 2
ENDMDL
MODEL 4
REMARK VINA RESULT:      -4.5      2.142      3.410
REMARK  2 active torsions:
REMARK  status: ('A' for Active; 'I' for Inactive)
REMARK    1  A    between atoms: C_6  and  N_1 
REMARK    2  A    between atoms: C_7  and  C_6 
ROOT
ATOM      1  N   UNL d   1     -42.439-122.829 -49.973  0.00  0.00    -0.287 N 
ATOM      2  N   UNL d   1     -43.348-122.788 -48.973  0.00  0.00    -0.224 NA
ATOM      3  C   UNL d   1     -43.217-122.620 -49.795  0.00  0.00     0.183 A 
ATOM      4  C   UNL d   1     -42.088-123.116 -49.305  0.00  0.00     0.083 A 
ATOM      5  C   UNL d   1     -42.662-123.090 -48.673  0.00  0.00     0.099 A 
ATOM      6  C   UNL d   1     -41.329-123.403 -49.160  0.00  0.00     0.019 A 
ATOM      7  C   UNL d   1     -42.417-123.364 -47.921  0.00  0.00     0.021 A 
ATOM      8  C   UNL d   1     -41.123-123.664 -48.405  0.00  0.00     0.002 A 
ATOM      9  C   UNL d   1     -41.677-123.639 -47.795  0.00  0.00     0.002 A 
ENDROOT
BRANCH   1  10
ATOM     10  C   UNL d   1     -41.706-123.008 -50.214  0.00  0.00     0.082 C 
BRANCH  10  11
ATOM     11  C   UNL d   1     -41.512-122.896 -51.007  0.00  0.00     0.018 A 
ATOM     12  C   UNL d   1     -41.365-122.136 -51.294  0.00  0.00     0.002 A 
ATOM     13  C   UNL d   1     -41.170-122.021 -52.091  0.00  0.00     0.000 A 
ATOM     14  C   UNL d   1     -41.123-122.669 -52.599  0.00  0.00     0.000 A 
ATOM     15  C   UNL d   1     -41.270-123.432 -52.310  0.00  0.00     0.000 A 
ATOM     16  C   UNL d   1     -41.464-123.544 -51.516  0.00  0.00     0.002 A 
ENDBRANCH  10  11
ENDBRANCH   1  10
TORSDOF 2
ENDMDL
MODEL 5
REMARK VINA RESULT:      -3.8      0.848      3.435
REMARK  2 active torsions:
REMARK  status: ('A' for Active; 'I' for Inactive)
REMARK    1  A    between atoms: C_6  and  N_1 
REMARK    2  A    between atoms: C_7  and  C_6 
ROOT
ATOM      1  N   UNL d   1     -42.253-121.978 -53.336  0.00  0.00    -0.287 N 
ATOM      2  N   UNL d   1     -43.012-121.523 -54.358  0.00  0.00    -0.224 NA
ATOM      3  C   UNL d   1     -42.911-121.511 -53.516  0.00  0.00     0.183 A 
ATOM      4  C   UNL d   1     -41.949-122.273 -54.024  0.00  0.00     0.083 A 
ATOM      5  C   UNL d   1     -42.429-121.986 -54.670  0.00  0.00     0.099 A 
ATOM      6  C   UNL d   1     -41.305-122.764 -54.176  0.00  0.00     0.019 A 
ATOM      7  C   UNL d   1     -42.214-122.224 -55.442  0.00  0.00     0.021 A 
ATOM      8  C   UNL d   1     -41.123-122.979 -54.952  0.00  0.00     0.002 A 
ATOM      9  C   UNL d   1     -41.586-122.701 -55.575  0.00  0.00     0.002 A 
ENDROOT
BRANCH   1  10
ATOM     10  C   UNL d   1     -41.635-122.409 -53.093  0.00  0.00     0.082 C 
BRANCH  10  11
ATOM     11  C   UNL d   1     -41.468-122.439 -52.286  0.00  0.00     0.018 A 
ATOM     12  C   UNL d   1     -41.474-123.163 -51.890  0.00  0.00     0.002 A 
ATOM     13  C   UNL d   1     -41.306-123.196 -51.079  0.00  0.00     0.000 A 
ATOM     14  C   UNL d   1     -41.133-122.502 -50.667  0.00  0.00     0.000 A 
ATOM     15  C   UNL d   1     -41.128-121.775 -51.066  0.00  0.00     0.000 A 
ATOM     16  C   UNL d   1     -41.295-121.745 -51.874  0.00  0.00     0.002 A 
ENDBRANCH  10  11
ENDBRANCH   1  10
TORSDOF 2
ENDMDL
