MODEL 1
REMARK VINA RESULT:      -2.7      0.000      0.000
REMARK  4 active torsions:
REMARK  status: ('A' for Active; 'I' for Inactive)
REMARK    1  A    between atoms: N_6  and  C_1 
REMARK    2  A    between atoms: C_7  and  N_2 
REMARK    3  A    between atoms: C_11  and  N_6 
REMARK    4  A    between atoms: C_14  and  C_11 
ROOT
ATOM      1  C   UNL d   1     -41.908-123.453 -49.607  0.00  0.00     0.735 A 
ATOM      2  N   UNL d   1     -42.538-123.243 -49.118  0.00  0.00    -0.139 N 
ATOM      3  N   UNL d   1     -41.238-123.592 -49.104  0.00  0.00    -0.059 NA
ATOM      4  C   UNL d   1     -42.292-123.245 -48.352  0.00  0.00     0.100 A 
ATOM      5  C   UNL d   1     -41.472-123.465 -48.343  0.00  0.00     0.116 A 
ATOM      6  C   UNL d   1     -42.683-123.081 -47.645  0.00  0.00     0.020 A 
ATOM      7  C   UNL d   1     -41.123-123.497 -47.598  0.00  0.00     0.021 A 
ATOM      8  C   UNL d   1     -42.277-123.132 -46.954  0.00  0.00     0.002 A 
ATOM      9  C   UNL d   1     -41.480-123.346 -46.946  0.00  0.00     0.002 A 
ENDROOT
BRANCH   1  10
ATOM     10  N   UNL d   1     -41.888-123.527 -50.429  0.00  0.00    -0.056 NA
BRANCH  10  11
ATOM     11  C   UNL d   1     -41.178-123.606 -50.794  0.00  0.00     0.163 C 
BRANCH  11  12
ATOM     12  C   UNL d   1     -41.161-123.787 -51.600  0.00  0.00     0.255 C 
ATOM     13  O   UNL d   1     -41.141-123.164 -52.160  0.00  0.00    -0.281 OA
ENDBRANCH  11  12
ENDBRANCH  10  11
ENDBRANCH   1  10
BRANCH   2  14
ATOM     14  C   UNL d   1     -43.204-123.099 -49.536  0.00  0.00     0.082 C 
ATOM     15  C   UNL d   1     -43.720-123.725 -49.702  0.00  0.00     0.020 C 
ATOM     16  C   UNL d   1     -43.362-122.330 -49.791  0.00  0.00     0.020 C 
ENDBRANCH   2  14
TORSDOF 4
ENDMDL
MODEL 2
REMARK VINA RESULT:      -2.7      1.858      3.981
REMARK  4 active torsions:
REMARK  status: ('A' for Active; 'I' for Inactive)
REMARK    1  A    between atoms: N_6  and  C_1 
REMARK    2  A    between atoms: C_7  and  N_2 
REMARK    3  A    between atoms: C_11  and  N_6 
REMARK    4  A    between atoms: C_14  and  C_11 
ROOT
ATOM      1  C   UNL d   1     -41.487-122.984 -51.151  0.00  0.00     0.735 A 
ATOM      2  N   UNL d   1     -41.597-122.338 -51.652  0.00  0.00    -0.139 N 
ATOM      3  N   UNL d   1     -41.281-123.646 -51.642  0.00  0.00    -0.059 NA
ATOM      4  C   UNL d   1     -41.471-122.566 -52.413  0.00  0.00     0.100 A 
ATOM      5  C   UNL d   1     -41.272-123.391 -52.407  0.00  0.00     0.116 A 
ATOM      6  C   UNL d   1     -41.504-122.155 -53.127  0.00  0.00     0.020 A 
ATOM      7  C   UNL d   1     -41.122-123.725 -53.145  0.00  0.00     0.021 A 
ATOM      8  C   UNL d   1     -41.346-122.546 -53.809  0.00  0.00     0.002 A 
ATOM      9  C   UNL d   1     -41.153-123.348 -53.803  0.00  0.00     0.002 A 
ENDROOT
BRANCH   1  10
ATOM     10  N   UNL d   1     -41.553-123.025 -50.329  0.00  0.00    -0.056 NA
BRANCH  10  11
ATOM     11  C   UNL d   1     -41.637-123.744 -49.982  0.00  0.00     0.163 C 
BRANCH  11  12
ATOM     12  C   UNL d   1     -41.693-123.786 -49.160  0.00  0.00     0.255 C 
ATOM     13  O   UNL d   1     -42.449-123.812 -48.800  0.00  0.00    -0.281 OA
ENDBRANCH  11  12
ENDBRANCH  10  11
ENDBRANCH   1  10
BRANCH   2  14
ATOM     14  C   UNL d   1     -41.794-121.678 -51.246  0.00  0.00     0.082 C 
ATOM     15  C   UNL d   1     -42.593-121.464 -51.186  0.00  0.00     0.020 C 
ATOM     16  C   UNL d   1     -41.199-121.225 -50.897  0.00  0.00     0.020 C 
ENDBRANCH   2  14
TORSDOF 4
ENDMDL
MODEL 3
REMARK VINA RESULT:      -2.1      1.564      2.301
REMARK  4 active torsions:
REMARK  status: ('A' for Active; 'I' for Inactive)
REMARK    1  A    between atoms: N_6  and  C_1 
REMARK    2  A    between atoms: C_7  and  N_2 
REMARK    3  A    between atoms: C_11  and  N_6 
REMARK    4  A    between atoms: C_14  and  C_11 
ROOT
ATOM      1  C   UNL d   1     -41.563-122.930 -51.570  0.00  0.00     0.735 A 
ATOM      2  N   UNL d   1     -41.712-122.308 -51.048  0.00  0.00    -0.139 N 
ATOM      3  N   UNL d   1     -41.487-123.634 -51.102  0.00  0.00    -0.059 NA
ATOM      4  C   UNL d   1     -41.730-122.592 -50.295  0.00  0.00     0.100 A 
ATOM      5  C   UNL d   1     -41.588-123.428 -50.329  0.00  0.00     0.116 A 
ATOM      6  C   UNL d   1     -41.854-122.224 -49.567  0.00  0.00     0.020 A 
ATOM      7  C   UNL d   1     -41.586-123.817 -49.602  0.00  0.00     0.021 A 
ATOM      8  C   UNL d   1     -41.838-122.667 -48.899  0.00  0.00     0.002 A 
ATOM      9  C   UNL d   1     -41.700-123.480 -48.932  0.00  0.00     0.002 A 
ENDROOT
BRANCH   1  10
ATOM     10  N   UNL d   1     -41.495-122.915 -52.392  0.00  0.00    -0.056 NA
BRANCH  10  11
ATOM     11  C   UNL d   1     -41.284-123.588 -52.776  0.00  0.00     0.163 C 
BRANCH  11  12
ATOM     12  C   UNL d   1     -41.151-123.557 -53.590  0.00  0.00     0.255 C 
ATOM     13  O   UNL d   1     -41.803-123.594 -54.115  0.00  0.00    -0.281 OA
ENDBRANCH  11  12
ENDBRANCH  10  11
ENDBRANCH   1  10
BRANCH   2  14
ATOM     14  C   UNL d   1     -41.795-121.612 -51.430  0.00  0.00     0.082 C 
ATOM     15  C   UNL d   1     -42.555-121.351 -51.634  0.00  0.00     0.020 C 
ATOM     16  C   UNL d   1     -41.123-121.169 -51.613  0.00  0.00     0.020 C 
ENDBRANCH   2  14
TORSDOF 4
ENDMDL
MODEL 4
REMARK VINA RESULT:      -1.7      3.026      4.188
REMARK  4 active torsions:
REMARK  status: ('A' for Active; 'I' for Inactive)
REMARK    1  A    between atoms: N_6  and  C_1 
REMARK    2  A    between atoms: C_7  and  N_2 
REMARK    3  A    between atoms: C_11  and  N_6 
REMARK    4  A    between atoms: C_14  and  C_11 
ROOT
ATOM      1  C   UNL d   1     -41.557-122.152 -53.396  0.00  0.00     0.735 A 
ATOM      2  N   UNL d   1     -41.578-122.835 -52.934  0.00  0.00    -0.139 N 
ATOM      3  N   UNL d   1     -41.392-121.504 -52.873  0.00  0.00    -0.059 NA
ATOM      4  C   UNL d   1     -41.437-122.642 -52.166  0.00  0.00     0.100 A 
ATOM      5  C   UNL d   1     -41.320-121.802 -52.127  0.00  0.00     0.116 A 
ATOM      6  C   UNL d   1     -41.394-123.095 -51.479  0.00  0.00     0.020 A 
ATOM      7  C   UNL d   1     -41.167-121.500 -51.376  0.00  0.00     0.021 A 
ATOM      8  C   UNL d   1     -41.241-122.732 -50.781  0.00  0.00     0.002 A 
ATOM      9  C   UNL d   1     -41.127-121.916 -50.743  0.00  0.00     0.002 A 
ENDROOT
BRANCH   1  10
ATOM     10  N   UNL d   1     -41.668-122.069 -54.210  0.00  0.00    -0.056 NA
BRANCH  10  11
ATOM     11  C   UNL d   1     -42.153-121.489 -54.478  0.00  0.00     0.163 C 
BRANCH  11  12
ATOM     12  C   UNL d   1     -42.284-121.422 -55.290  0.00  0.00     0.255 C 
ATOM     13  O   UNL d   1     -43.048-121.580 -55.597  0.00  0.00    -0.281 OA
ENDBRANCH  11  12
ENDBRANCH  10  11
ENDBRANCH   1  10
BRANCH   2  14
ATOM     14  C   UNL d   1     -41.730-123.486 -53.372  0.00  0.00     0.082 C 
ATOM     15  C   UNL d   1     -41.123-123.817 -53.829  0.00  0.00     0.020 C 
ATOM     16  C   UNL d   1     -42.488-123.814 -53.359  0.00  0.00     0.020 C 
ENDBRANCH   2  14
TORSDOF 4
ENDMDL
