MODEL 1
REMARK VINA RESULT:      -3.0      0.000      0.000
REMARK  1 active torsions:
REMARK  status: ('A' for Active; 'I' for Inactive)
REMARK    1  A    between atoms: C_6  and  C_1 
ROOT
ATOM      1  C   UNL d   1      31.004  16.806 -23.967  0.00  0.00     0.162 A 
ATOM      2  N   UNL d   1      30.296  17.063 -24.277  0.00  0.00    -0.225 NA
ATOM      3  N   UNL d   1      30.854  16.161 -23.478  0.00  0.00    -0.225 NA
ATOM      4  C   UNL d   1      29.695  16.572 -23.977  0.00  0.00     0.101 A 
ATOM      5  C   UNL d   1      30.039  16.016 -23.484  0.00  0.00     0.101 A 
ATOM      6  C   UNL d   1      28.881  16.578 -24.103  0.00  0.00     0.021 A 
ATOM      7  C   UNL d   1      29.577  15.453 -23.106  0.00  0.00     0.021 A 
ATOM      8  C   UNL d   1      28.762  15.453 -23.228  0.00  0.00     0.002 A 
ATOM      9  C   UNL d   1      28.411  16.019 -23.730  0.00  0.00     0.002 A 
ENDROOT
BRANCH   1  10
ATOM     10  C   UNL d   1      31.750  17.135 -24.116  0.00  0.00     0.037 A 
ATOM     11  C   UNL d   1      32.068  17.706 -23.610  0.00  0.00     0.024 A 
ATOM     12  C   UNL d   1      32.809  18.033 -23.758  0.00  0.00     0.103 A 
ATOM     13  N   UNL d   1      33.117  18.609 -23.237  0.00  0.00    -0.148 N 
ATOM     14  C   UNL d   1      33.241  17.795 -24.411  0.00  0.00     0.021 A 
ATOM     15  C   UNL d   1      32.932  17.219 -24.932  0.00  0.00     0.002 A 
ATOM     16  C   UNL d   1      32.178  16.887 -24.781  0.00  0.00     0.003 A 
ENDBRANCH   1  10
TORSDOF 1
ENDMDL
MODEL 2
REMARK VINA RESULT:      -2.9      1.044      3.548
REMARK  1 active torsions:
REMARK  status: ('A' for Active; 'I' for Inactive)
REMARK    1  A    between atoms: C_6  and  C_1 
ROOT
ATOM      1  C   UNL d   1      30.813  16.801 -24.120  0.00  0.00     0.162 A 
ATOM      2  N   UNL d   1      31.026  17.531 -24.413  0.00  0.00    -0.225 NA
ATOM      3  N   UNL d   1      31.416  16.534 -23.627  0.00  0.00    -0.225 NA
ATOM      4  C   UNL d   1      31.772  17.722 -24.098  0.00  0.00     0.101 A 
ATOM      5  C   UNL d   1      32.013  17.107 -23.613  0.00  0.00     0.101 A 
ATOM      6  C   UNL d   1      32.247  18.386 -24.204  0.00  0.00     0.021 A 
ATOM      7  C   UNL d   1      32.734  17.142 -23.224  0.00  0.00     0.021 A 
ATOM      8  C   UNL d   1      33.215  17.804 -23.326  0.00  0.00     0.002 A 
ATOM      9  C   UNL d   1      32.970  18.430 -23.819  0.00  0.00     0.002 A 
ENDROOT
BRANCH   1  10
ATOM     10  C   UNL d   1      30.111  16.394 -24.288  0.00  0.00     0.037 A 
ATOM     11  C   UNL d   1      29.434  16.512 -23.827  0.00  0.00     0.024 A 
ATOM     12  C   UNL d   1      28.737  16.108 -23.994  0.00  0.00     0.103 A 
ATOM     13  N   UNL d   1      28.062  16.238 -23.519  0.00  0.00    -0.148 N 
ATOM     14  C   UNL d   1      28.705  15.583 -24.620  0.00  0.00     0.021 A 
ATOM     15  C   UNL d   1      29.381  15.452 -25.095  0.00  0.00     0.002 A 
ATOM     16  C   UNL d   1      30.091  15.864 -24.925  0.00  0.00     0.003 A 
ENDBRANCH   1  10
TORSDOF 1
ENDMDL
MODEL 3
REMARK VINA RESULT:      -2.9      6.512      8.002
REMARK  1 active torsions:
REMARK  status: ('A' for Active; 'I' for Inactive)
REMARK    1  A    between atoms: C_6  and  C_1 
ROOT
ATOM      1  C   UNL d   1      32.830  22.746 -19.449  0.00  0.00     0.162 A 
ATOM      2  N   UNL d   1      32.419  23.343 -19.075  0.00  0.00    -0.225 NA
ATOM      3  N   UNL d   1      33.205  22.291 -18.874  0.00  0.00    -0.225 NA
ATOM      4  C   UNL d   1      32.539  23.258 -18.255  0.00  0.00     0.101 A 
ATOM      5  C   UNL d   1      33.024  22.610 -18.132  0.00  0.00     0.101 A 
ATOM      6  C   UNL d   1      32.258  23.702 -17.622  0.00  0.00     0.021 A 
ATOM      7  C   UNL d   1      33.239  22.390 -17.371  0.00  0.00     0.021 A 
ATOM      8  C   UNL d   1      32.961  22.831 -16.731  0.00  0.00     0.002 A 
ATOM      9  C   UNL d   1      32.468  23.491 -16.857  0.00  0.00     0.002 A 
ENDROOT
BRANCH   1  10
ATOM     10  C   UNL d   1      32.866  22.618 -20.266  0.00  0.00     0.037 A 
ATOM     11  C   UNL d   1      32.685  21.876 -20.585  0.00  0.00     0.024 A 
ATOM     12  C   UNL d   1      32.721  21.748 -21.397  0.00  0.00     0.103 A 
ATOM     13  N   UNL d   1      32.535  20.993 -21.704  0.00  0.00    -0.148 N 
ATOM     14  C   UNL d   1      32.938  22.355 -21.900  0.00  0.00     0.021 A 
ATOM     15  C   UNL d   1      33.124  23.110 -21.594  0.00  0.00     0.002 A 
ATOM     16  C   UNL d   1      33.087  23.240 -20.767  0.00  0.00     0.003 A 
ENDBRANCH   1  10
TORSDOF 1
ENDMDL
MODEL 4
REMARK VINA RESULT:      -2.9      4.148      5.814
REMARK  1 active torsions:
REMARK  status: ('A' for Active; 'I' for Inactive)
REMARK    1  A    between atoms: C_6  and  C_1 
ROOT
ATOM      1  C   UNL d   1      32.932  21.129 -21.454  0.00  0.00     0.162 A 
ATOM      2  N   UNL d   1      33.024  21.196 -22.261  0.00  0.00    -0.225 NA
ATOM      3  N   UNL d   1      32.936  20.330 -21.259  0.00  0.00    -0.225 NA
ATOM      4  C   UNL d   1      33.086  20.427 -22.573  0.00  0.00     0.101 A 
ATOM      5  C   UNL d   1      33.032  19.892 -21.955  0.00  0.00     0.101 A 
ATOM      6  C   UNL d   1      33.186  20.166 -23.348  0.00  0.00     0.021 A 
ATOM      7  C   UNL d   1      33.076  19.086 -22.097  0.00  0.00     0.021 A 
ATOM      8  C   UNL d   1      33.175  18.818 -22.870  0.00  0.00     0.002 A 
ATOM      9  C   UNL d   1      33.230  19.362 -23.500  0.00  0.00     0.002 A 
ENDROOT
BRANCH   1  10
ATOM     10  C   UNL d   1      32.848  21.756 -20.920  0.00  0.00     0.037 A 
ATOM     11  C   UNL d   1      32.383  22.414 -21.111  0.00  0.00     0.024 A 
ATOM     12  C   UNL d   1      32.300  23.037 -20.580  0.00  0.00     0.103 A 
ATOM     13  N   UNL d   1      31.827  23.695 -20.786  0.00  0.00    -0.148 N 
ATOM     14  C   UNL d   1      32.678  23.014 -19.854  0.00  0.00     0.021 A 
ATOM     15  C   UNL d   1      33.150  22.357 -19.647  0.00  0.00     0.002 A 
ATOM     16  C   UNL d   1      33.235  21.722 -20.188  0.00  0.00     0.003 A 
ENDBRANCH   1  10
TORSDOF 1
ENDMDL
MODEL 5
REMARK VINA RESULT:      -2.8      3.415      5.415
REMARK  1 active torsions:
REMARK  status: ('A' for Active; 'I' for Inactive)
REMARK    1  A    between atoms: C_6  and  C_1 
ROOT
ATOM      1  C   UNL d   1      32.950  20.460 -22.146  0.00  0.00     0.162 A 
ATOM      2  N   UNL d   1      32.583  20.585 -21.428  0.00  0.00    -0.225 NA
ATOM      3  N   UNL d   1      33.241  21.181 -22.416  0.00  0.00    -0.225 NA
ATOM      4  C   UNL d   1      32.646  21.395 -21.249  0.00  0.00     0.101 A 
ATOM      5  C   UNL d   1      33.052  21.763 -21.858  0.00  0.00     0.101 A 
ATOM      6  C   UNL d   1      32.378  21.825 -20.600  0.00  0.00     0.021 A 
ATOM      7  C   UNL d   1      33.199  22.570 -21.832  0.00  0.00     0.021 A 
ATOM      8  C   UNL d   1      32.933  23.007 -21.186  0.00  0.00     0.002 A 
ATOM      9  C   UNL d   1      32.520  22.632 -20.566  0.00  0.00     0.002 A 
ENDROOT
BRANCH   1  10
ATOM     10  C   UNL d   1      33.019  19.734 -22.538  0.00  0.00     0.037 A 
ATOM     11  C   UNL d   1      32.942  19.690 -23.361  0.00  0.00     0.024 A 
ATOM     12  C   UNL d   1      33.011  18.968 -23.750  0.00  0.00     0.103 A 
ATOM     13  N   UNL d   1      32.930  18.940 -24.582  0.00  0.00    -0.148 N 
ATOM     14  C   UNL d   1      33.157  18.284 -23.327  0.00  0.00     0.021 A 
ATOM     15  C   UNL d   1      33.238  18.312 -22.496  0.00  0.00     0.002 A 
ATOM     16  C   UNL d   1      33.168  19.047 -22.099  0.00  0.00     0.003 A 
ENDBRANCH   1  10
TORSDOF 1
ENDMDL
MODEL 6
REMARK VINA RESULT:      -2.6      1.106      3.746
REMARK  1 active torsions:
REMARK  status: ('A' for Active; 'I' for Inactive)
REMARK    1  A    between atoms: C_6  and  C_1 
ROOT
ATOM      1  C   UNL d   1      31.453  17.440 -24.009  0.00  0.00     0.162 A 
ATOM      2  N   UNL d   1      31.780  17.826 -23.370  0.00  0.00    -0.225 NA
ATOM      3  N   UNL d   1      31.762  17.771 -24.697  0.00  0.00    -0.225 NA
ATOM      4  C   UNL d   1      32.300  18.406 -23.663  0.00  0.00     0.101 A 
ATOM      5  C   UNL d   1      32.289  18.372 -24.482  0.00  0.00     0.101 A 
ATOM      6  C   UNL d   1      32.775  18.952 -23.270  0.00  0.00     0.021 A 
ATOM      7  C   UNL d   1      32.752  18.883 -24.926  0.00  0.00     0.021 A 
ATOM      8  C   UNL d   1      33.230  19.433 -24.539  0.00  0.00     0.002 A 
ATOM      9  C   UNL d   1      33.241  19.467 -23.705  0.00  0.00     0.002 A 
ENDROOT
BRANCH   1  10
ATOM     10  C   UNL d   1      30.904  16.821 -23.976  0.00  0.00     0.037 A 
ATOM     11  C   UNL d   1      30.125  16.933 -24.232  0.00  0.00     0.024 A 
ATOM     12  C   UNL d   1      29.580  16.318 -24.199  0.00  0.00     0.103 A 
ATOM     13  N   UNL d   1      28.797  16.447 -24.461  0.00  0.00    -0.148 N 
ATOM     14  C   UNL d   1      29.802  15.585 -23.911  0.00  0.00     0.021 A 
ATOM     15  C   UNL d   1      30.585  15.456 -23.649  0.00  0.00     0.002 A 
ATOM     16  C   UNL d   1      31.141  16.082 -23.683  0.00  0.00     0.003 A 
ENDBRANCH   1  10
TORSDOF 1
ENDMDL
MODEL 7
REMARK VINA RESULT:      -2.6      3.141      4.997
REMARK  1 active torsions:
REMARK  status: ('A' for Active; 'I' for Inactive)
REMARK    1  A    between atoms: C_6  and  C_1 
ROOT
ATOM      1  C   UNL d   1      33.099  19.901 -22.407  0.00  0.00     0.162 A 
ATOM      2  N   UNL d   1      33.241  20.655 -22.683  0.00  0.00    -0.225 NA
ATOM      3  N   UNL d   1      32.926  19.948 -21.603  0.00  0.00    -0.225 NA
ATOM      4  C   UNL d   1      33.155  21.179 -22.042  0.00  0.00     0.101 A 
ATOM      5  C   UNL d   1      32.961  20.743 -21.376  0.00  0.00     0.101 A 
ATOM      6  C   UNL d   1      33.233  21.998 -22.002  0.00  0.00     0.021 A 
ATOM      7  C   UNL d   1      32.841  21.116 -20.655  0.00  0.00     0.021 A 
ATOM      8  C   UNL d   1      32.918  21.935 -20.608  0.00  0.00     0.002 A 
ATOM      9  C   UNL d   1      33.116  22.379 -21.286  0.00  0.00     0.002 A 
ENDROOT
BRANCH   1  10
ATOM     10  C   UNL d   1      33.124  19.205 -22.855  0.00  0.00     0.037 A 
ATOM     11  C   UNL d   1      33.059  19.232 -23.680  0.00  0.00     0.024 A 
ATOM     12  C   UNL d   1      33.084  18.541 -24.125  0.00  0.00     0.103 A 
ATOM     13  N   UNL d   1      33.017  18.584 -24.957  0.00  0.00    -0.148 N 
ATOM     14  C   UNL d   1      33.173  17.816 -23.757  0.00  0.00     0.021 A 
ATOM     15  C   UNL d   1      33.240  17.772 -22.925  0.00  0.00     0.002 A 
ATOM     16  C   UNL d   1      33.215  18.476 -22.471  0.00  0.00     0.003 A 
ENDBRANCH   1  10
TORSDOF 1
ENDMDL
MODEL 8
REMARK VINA RESULT:      -2.5      1.789      3.903
REMARK  1 active torsions:
REMARK  status: ('A' for Active; 'I' for Inactive)
REMARK    1  A    between atoms: C_6  and  C_1 
ROOT
ATOM      1  C   UNL d   1      32.760  17.904 -23.298  0.00  0.00     0.162 A 
ATOM      2  N   UNL d   1      32.844  18.494 -23.854  0.00  0.00    -0.225 NA
ATOM      3  N   UNL d   1      32.847  18.239 -22.551  0.00  0.00    -0.225 NA
ATOM      4  C   UNL d   1      32.985  19.207 -23.448  0.00  0.00     0.101 A 
ATOM      5  C   UNL d   1      32.987  19.050 -22.644  0.00  0.00     0.101 A 
ATOM      6  C   UNL d   1      33.109  19.971 -23.729  0.00  0.00     0.021 A 
ATOM      7  C   UNL d   1      33.113  19.653 -22.103  0.00  0.00     0.021 A 
ATOM      8  C   UNL d   1      33.239  20.420 -22.377  0.00  0.00     0.002 A 
ATOM      9  C   UNL d   1      33.237  20.580 -23.195  0.00  0.00     0.002 A 
ENDROOT
BRANCH   1  10
ATOM     10  C   UNL d   1      32.613  17.104 -23.454  0.00  0.00     0.037 A 
ATOM     11  C   UNL d   1      31.849  16.844 -23.640  0.00  0.00     0.024 A 
ATOM     12  C   UNL d   1      31.703  16.049 -23.796  0.00  0.00     0.103 A 
ATOM     13  N   UNL d   1      30.927  15.802 -23.982  0.00  0.00    -0.148 N 
ATOM     14  C   UNL d   1      32.313  15.505 -23.768  0.00  0.00     0.021 A 
ATOM     15  C   UNL d   1      33.089  15.752 -23.581  0.00  0.00     0.002 A 
ATOM     16  C   UNL d   1      33.238  16.562 -23.423  0.00  0.00     0.003 A 
ENDBRANCH   1  10
TORSDOF 1
ENDMDL
MODEL 9
REMARK VINA RESULT:      -2.5      3.061      4.559
REMARK  1 active torsions:
REMARK  status: ('A' for Active; 'I' for Inactive)
REMARK    1  A    between atoms: C_6  and  C_1 
ROOT
ATOM      1  C   UNL d   1      32.967  19.904 -22.471  0.00  0.00     0.162 A 
ATOM      2  N   UNL d   1      33.115  19.189 -22.109  0.00  0.00    -0.225 NA
ATOM      3  N   UNL d   1      32.865  19.769 -23.277  0.00  0.00    -0.225 NA
ATOM      4  C   UNL d   1      33.106  18.600 -22.696  0.00  0.00     0.101 A 
ATOM      5  C   UNL d   1      32.952  18.958 -23.417  0.00  0.00     0.101 A 
ATOM      6  C   UNL d   1      33.221  17.787 -22.645  0.00  0.00     0.021 A 
ATOM      7  C   UNL d   1      32.909  18.509 -24.103  0.00  0.00     0.021 A 
ATOM      8  C   UNL d   1      33.023  17.694 -24.059  0.00  0.00     0.002 A 
ATOM      9  C   UNL d   1      33.180  17.330 -23.325  0.00  0.00     0.002 A 
ENDROOT
BRANCH   1  10
ATOM     10  C   UNL d   1      32.925  20.642 -22.097  0.00  0.00     0.037 A 
ATOM     11  C   UNL d   1      32.572  20.717 -21.352  0.00  0.00     0.024 A 
ATOM     12  C   UNL d   1      32.530  21.450 -20.980  0.00  0.00     0.103 A 
ATOM     13  N   UNL d   1      32.171  21.510 -20.228  0.00  0.00    -0.148 N 
ATOM     14  C   UNL d   1      32.839  22.115 -21.344  0.00  0.00     0.021 A 
ATOM     15  C   UNL d   1      33.199  22.055 -22.095  0.00  0.00     0.002 A 
ATOM     16  C   UNL d   1      33.241  21.308 -22.474  0.00  0.00     0.003 A 
ENDBRANCH   1  10
TORSDOF 1
ENDMDL
