MODEL 1
REMARK VINA RESULT:      67.0      0.000      0.000
REMARK  3 active torsions:
REMARK  status: ('A' for Active; 'I' for Inactive)
REMARK    1  A    between atoms: C_16  and  N_3 
REMARK    2  A    between atoms: C_10  and  C_5 
REMARK    3  A    between atoms: C_26  and  C_16 
ROOT
ATOM      1  C   UNL d   1      44.497 -12.999  43.213  0.00  0.00     0.083 A 
ATOM      2  C   UNL d   1      43.750 -12.855  42.899  0.00  0.00     0.161 A 
ATOM      3  N   UNL d   1      43.584 -13.272  44.160  0.00  0.00    -0.268 N 
ATOM      4  C   UNL d   1      43.182 -13.022  43.481  0.00  0.00     0.288 A 
ATOM      5  C   UNL d   1      44.399 -13.258  43.994  0.00  0.00     0.072 A 
ATOM      6  C   UNL d   1      45.173 -12.880  42.757  0.00  0.00     0.201 A 
ATOM      7  O   UNL d   1      43.678 -12.587  42.115  0.00  0.00    -0.302 OA
ATOM      8  C   UNL d   1      45.097 -12.614  41.979  0.00  0.00     0.063 A 
ATOM      9  C   UNL d   1      44.352 -12.468  41.662  0.00  0.00     0.103 A 
ATOM     10  O   UNL d   1      42.370 -12.953  43.400  0.00  0.00    -0.264 OA
ATOM     11  O   UNL d   1      45.920 -13.024  43.070  0.00  0.00    -0.286 OA
ATOM     12  C   UNL d   1      45.775 -12.493  41.519  0.00  0.00     0.017 A 
ATOM     13  C   UNL d   1      44.286 -12.200  40.875  0.00  0.00     0.026 A 
ATOM     14  C   UNL d   1      45.707 -12.229  40.744  0.00  0.00     0.058 A 
ATOM     15  C   UNL d   1      44.960 -12.081  40.422  0.00  0.00     0.013 A 
ATOM     16 CL   UNL d   1      46.377 -12.110  40.290  0.00  0.00    -0.082 Cl
ENDROOT
BRANCH   5  17
ATOM     17  C   UNL d   1      45.144 -13.403  44.312  0.00  0.00     0.017 A 
ATOM     18  C   UNL d   1      45.429 -14.177  44.378  0.00  0.00     0.008 A 
ATOM     19  C   UNL d   1      46.174 -14.318  44.696  0.00  0.00     0.035 A 
ATOM     20 BR   UNL d   1      46.452 -15.090  44.759  0.00  0.00    -0.049 Br
ATOM     21  C   UNL d   1      46.647 -13.684  44.954  0.00  0.00     0.007 A 
ATOM     22  C   UNL d   1      46.362 -12.909  44.887  0.00  0.00     0.001 A 
ATOM     23  C   UNL d   1      45.608 -12.771  44.565  0.00  0.00     0.002 A 
ENDBRANCH   5  17
BRANCH   3  24
ATOM     24  C   UNL d   1      43.241 -13.495  44.873  0.00  0.00     0.129 C 
BRANCH  24  25
ATOM     25  C   UNL d   1      42.585 -13.992  44.874  0.00  0.00     0.253 C 
ATOM     26  O   UNL d   1      42.686 -14.807  44.854  0.00  0.00    -0.281 OA
ENDBRANCH  24  25
ENDBRANCH   3  24
TORSDOF 3
ENDMDL
MODEL 2
REMARK VINA RESULT:      68.4      6.022      7.182
REMARK  3 active torsions:
REMARK  status: ('A' for Active; 'I' for Inactive)
REMARK    1  A    between atoms: C_16  and  N_3 
REMARK    2  A    between atoms: C_10  and  C_5 
REMARK    3  A    between atoms: C_26  and  C_16 
ROOT
ATOM      1  C   UNL d   1      43.706 -15.511  37.058  0.00  0.00     0.083 A 
ATOM      2  C   UNL d   1      44.059 -16.190  36.755  0.00  0.00     0.161 A 
ATOM      3  N   UNL d   1      42.766 -16.466  36.966  0.00  0.00    -0.268 N 
ATOM      4  C   UNL d   1      43.481 -16.784  36.696  0.00  0.00     0.288 A 
ATOM      5  C   UNL d   1      42.905 -15.677  37.190  0.00  0.00     0.072 A 
ATOM      6  C   UNL d   1      44.150 -14.827  37.177  0.00  0.00     0.201 A 
ATOM      7  O   UNL d   1      44.869 -16.186  36.568  0.00  0.00    -0.302 OA
ATOM      8  C   UNL d   1      44.954 -14.826  36.991  0.00  0.00     0.063 A 
ATOM      9  C   UNL d   1      45.310 -15.504  36.688  0.00  0.00     0.103 A 
ATOM     10  O   UNL d   1      43.595 -17.547  36.421  0.00  0.00    -0.264 OA
ATOM     11  O   UNL d   1      43.799 -14.148  37.480  0.00  0.00    -0.286 OA
ATOM     12  C   UNL d   1      45.403 -14.140  37.110  0.00  0.00     0.017 A 
ATOM     13  C   UNL d   1      46.123 -15.494  36.502  0.00  0.00     0.026 A 
ATOM     14  C   UNL d   1      46.203 -14.133  36.926  0.00  0.00     0.058 A 
ATOM     15  C   UNL d   1      46.564 -14.812  36.622  0.00  0.00     0.013 A 
ATOM     16 CL   UNL d   1      46.646 -13.455  37.044  0.00  0.00    -0.082 Cl
ENDROOT
BRANCH   5  17
ATOM     17  C   UNL d   1      42.550 -15.000  37.493  0.00  0.00     0.017 A 
ATOM     18  C   UNL d   1      41.995 -14.580  37.046  0.00  0.00     0.008 A 
ATOM     19  C   UNL d   1      41.642 -13.904  37.352  0.00  0.00     0.035 A 
ATOM     20 BR   UNL d   1      41.091 -13.491  36.902  0.00  0.00    -0.049 Br
ATOM     21  C   UNL d   1      41.839 -13.636  38.115  0.00  0.00     0.007 A 
ATOM     22  C   UNL d   1      42.394 -14.056  38.563  0.00  0.00     0.001 A 
ATOM     23  C   UNL d   1      42.749 -14.739  38.249  0.00  0.00     0.002 A 
ENDBRANCH   5  17
BRANCH   3  24
ATOM     24  C   UNL d   1      42.044 -16.858  37.006  0.00  0.00     0.129 C 
BRANCH  24  25
ATOM     25  C   UNL d   1      41.579 -16.930  36.331  0.00  0.00     0.253 C 
ATOM     26  O   UNL d   1      40.768 -16.807  36.373  0.00  0.00    -0.281 OA
ENDBRANCH  24  25
ENDBRANCH   3  24
TORSDOF 3
ENDMDL
MODEL 3
REMARK VINA RESULT:      68.9      6.062      6.856
REMARK  3 active torsions:
REMARK  status: ('A' for Active; 'I' for Inactive)
REMARK    1  A    between atoms: C_16  and  N_3 
REMARK    2  A    between atoms: C_10  and  C_5 
REMARK    3  A    between atoms: C_26  and  C_16 
ROOT
ATOM      1  C   UNL d   1      44.694 -15.781  37.516  0.00  0.00     0.083 A 
ATOM      2  C   UNL d   1      44.351 -16.471  37.805  0.00  0.00     0.161 A 
ATOM      3  N   UNL d   1      45.667 -16.549  38.034  0.00  0.00    -0.268 N 
ATOM      4  C   UNL d   1      44.949 -16.950  38.126  0.00  0.00     0.288 A 
ATOM      5  C   UNL d   1      45.510 -15.825  37.656  0.00  0.00     0.072 A 
ATOM      6  C   UNL d   1      44.230 -15.199  37.164  0.00  0.00     0.201 A 
ATOM      7  O   UNL d   1      43.530 -16.582  37.739  0.00  0.00    -0.302 OA
ATOM      8  C   UNL d   1      43.415 -15.312  37.100  0.00  0.00     0.063 A 
ATOM      9  C   UNL d   1      43.068 -16.001  37.387  0.00  0.00     0.103 A 
ATOM     10  O   UNL d   1      44.850 -17.685  38.472  0.00  0.00    -0.264 OA
ATOM     11  O   UNL d   1      44.572 -14.508  36.875  0.00  0.00    -0.286 OA
ATOM     12  C   UNL d   1      42.946 -14.728  36.746  0.00  0.00     0.017 A 
ATOM     13  C   UNL d   1      42.244 -16.106  37.319  0.00  0.00     0.026 A 
ATOM     14  C   UNL d   1      42.134 -14.834  36.680  0.00  0.00     0.058 A 
ATOM     15  C   UNL d   1      41.782 -15.525  36.967  0.00  0.00     0.013 A 
ATOM     16 CL   UNL d   1      41.671 -14.257  36.330  0.00  0.00    -0.082 Cl
ENDROOT
BRANCH   5  17
ATOM     17  C   UNL d   1      45.857 -15.136  37.369  0.00  0.00     0.017 A 
ATOM     18  C   UNL d   1      45.846 -14.441  37.818  0.00  0.00     0.008 A 
ATOM     19  C   UNL d   1      46.193 -13.755  37.528  0.00  0.00     0.035 A 
ATOM     20 BR   UNL d   1      46.179 -13.067  37.979  0.00  0.00    -0.049 Br
ATOM     21  C   UNL d   1      46.559 -13.754  36.780  0.00  0.00     0.007 A 
ATOM     22  C   UNL d   1      46.569 -14.449  36.331  0.00  0.00     0.001 A 
ATOM     23  C   UNL d   1      46.217 -15.140  36.628  0.00  0.00     0.002 A 
ENDBRANCH   5  17
BRANCH   3  24
ATOM     24  C   UNL d   1      46.408 -16.817  38.273  0.00  0.00     0.129 C 
BRANCH  24  25
ATOM     25  C   UNL d   1      46.594 -16.845  39.074  0.00  0.00     0.253 C 
ATOM     26  O   UNL d   1      46.380 -17.498  39.525  0.00  0.00    -0.281 OA
ENDBRANCH  24  25
ENDBRANCH   3  24
TORSDOF 3
ENDMDL
MODEL 4
REMARK VINA RESULT:      69.0      6.106      7.304
REMARK  3 active torsions:
REMARK  status: ('A' for Active; 'I' for Inactive)
REMARK    1  A    between atoms: C_16  and  N_3 
REMARK    2  A    between atoms: C_10  and  C_5 
REMARK    3  A    between atoms: C_26  and  C_16 
ROOT
ATOM      1  C   UNL d   1      43.845 -15.692  36.878  0.00  0.00     0.083 A 
ATOM      2  C   UNL d   1      43.527 -16.434  36.714  0.00  0.00     0.161 A 
ATOM      3  N   UNL d   1      44.831 -16.601  36.966  0.00  0.00    -0.268 N 
ATOM      4  C   UNL d   1      44.133 -16.999  36.768  0.00  0.00     0.288 A 
ATOM      5  C   UNL d   1      44.652 -15.791  37.034  0.00  0.00     0.072 A 
ATOM      6  C   UNL d   1      43.368 -15.021  36.865  0.00  0.00     0.201 A 
ATOM      7  O   UNL d   1      42.718 -16.505  36.536  0.00  0.00    -0.302 OA
ATOM      8  C   UNL d   1      42.565 -15.095  36.687  0.00  0.00     0.063 A 
ATOM      9  C   UNL d   1      42.243 -15.835  36.524  0.00  0.00     0.103 A 
ATOM     10  O   UNL d   1      44.057 -17.806  36.647  0.00  0.00    -0.264 OA
ATOM     11  O   UNL d   1      43.685 -14.279  37.028  0.00  0.00    -0.286 OA
ATOM     12  C   UNL d   1      42.083 -14.421  36.674  0.00  0.00     0.017 A 
ATOM     13  C   UNL d   1      41.432 -15.900  36.345  0.00  0.00     0.026 A 
ATOM     14  C   UNL d   1      41.284 -14.488  36.498  0.00  0.00     0.058 A 
ATOM     15  C   UNL d   1      40.957 -15.230  36.333  0.00  0.00     0.013 A 
ATOM     16 CL   UNL d   1      40.809 -13.822  36.485  0.00  0.00    -0.082 Cl
ENDROOT
BRANCH   5  17
ATOM     17  C   UNL d   1      44.974 -15.051  37.198  0.00  0.00     0.017 A 
ATOM     18  C   UNL d   1      45.653 -14.791  36.803  0.00  0.00     0.008 A 
ATOM     19  C   UNL d   1      45.971 -14.052  36.969  0.00  0.00     0.035 A 
ATOM     20 BR   UNL d   1      46.647 -13.799  36.573  0.00  0.00    -0.049 Br
ATOM     21  C   UNL d   1      45.613 -13.559  37.536  0.00  0.00     0.007 A 
ATOM     22  C   UNL d   1      44.933 -13.819  37.931  0.00  0.00     0.001 A 
ATOM     23  C   UNL d   1      44.615 -14.567  37.760  0.00  0.00     0.002 A 
ENDBRANCH   5  17
BRANCH   3  24
ATOM     24  C   UNL d   1      45.571 -16.943  37.076  0.00  0.00     0.129 C 
BRANCH  24  25
ATOM     25  C   UNL d   1      45.746 -17.318  37.787  0.00  0.00     0.253 C 
ATOM     26  O   UNL d   1      45.157 -17.431  38.350  0.00  0.00    -0.281 OA
ENDBRANCH  24  25
ENDBRANCH   3  24
TORSDOF 3
ENDMDL
