MODEL 1
REMARK VINA RESULT:      -5.0      0.000      0.000
REMARK  10 active torsions:
REMARK  status: ('A' for Active; 'I' for Inactive)
REMARK       I    between atoms: N_8  and  C_1 
REMARK    1  A    between atoms: C_11  and  C_1 
REMARK    2  A    between atoms: C_2  and  C_12 
REMARK       I    between atoms: N_7  and  C_2 
REMARK    3  A    between atoms: C_3  and  C_19 
REMARK    4  A    between atoms: C_4  and  C_20 
REMARK    5  A    between atoms: C_19  and  N_7 
REMARK    6  A    between atoms: C_20  and  N_8 
REMARK    7  A    between atoms: C_23  and  C_11 
REMARK    8  A    between atoms: C_12  and  C_22 
REMARK    9  A    between atoms: S_21  and  C_23 
REMARK   10  A    between atoms: C_22  and  S_21 
ROOT
ATOM      1  S   UNL d   1     -45.275  13.426  22.179  0.00  0.00    -0.086 SA
ENDROOT
BRANCH   1   2
ATOM      2  C   UNL d   1     -44.705  12.857  21.940  0.00  0.00     0.040 C 
BRANCH   2   3
ATOM      3  C   UNL d   1     -44.002  13.109  21.563  0.00  0.00     0.070 C 
BRANCH   3   4
ATOM      4  C   UNL d   1     -43.298  12.652  21.670  0.00  0.00     0.280 C 
ATOM      5  N   UNL d   1     -42.539  12.987  21.432  0.00  0.00    -0.204 NA
ATOM      6  O   UNL d   1     -43.333  11.882  22.003  0.00  0.00    -0.265 OA
BRANCH   5   7
ATOM      7  C   UNL d   1     -42.497  13.736  21.107  0.00  0.00     0.127 C 
BRANCH   7   8
ATOM      8  C   UNL d   1     -41.769  14.097  20.965  0.00  0.00     0.119 A 
ATOM      9  O   UNL d   1     -41.723  14.948  21.012  0.00  0.00    -0.304 OA
ATOM     10  C   UNL d   1     -40.928  15.137  20.843  0.00  0.00     0.123 A 
ATOM     11  C   UNL d   1     -40.494  14.471  20.699  0.00  0.00     0.029 A 
ATOM     12  C   UNL d   1     -41.027  13.819  20.777  0.00  0.00     0.028 A 
ENDBRANCH   7   8
ENDBRANCH   5   7
ENDBRANCH   3   4
ENDBRANCH   2   3
ENDBRANCH   1   2
BRANCH   1  13
ATOM     13  C   UNL d   1     -46.045  13.150  22.385  0.00  0.00     0.040 C 
BRANCH  13  14
ATOM     14  C   UNL d   1     -46.559  13.646  22.850  0.00  0.00     0.070 C 
BRANCH  14  15
ATOM     15  C   UNL d   1     -47.363  13.480  22.863  0.00  0.00     0.280 C 
ATOM     16  N   UNL d   1     -47.924  14.136  22.926  0.00  0.00    -0.204 NA
ATOM     17  O   UNL d   1     -47.660  12.699  22.817  0.00  0.00    -0.265 OA
BRANCH  16  18
ATOM     18  C   UNL d   1     -48.711  13.959  22.938  0.00  0.00     0.127 C 
BRANCH  18  19
ATOM     19  C   UNL d   1     -49.294  14.561  23.009  0.00  0.00     0.119 A 
ATOM     20  O   UNL d   1     -49.259  15.218  23.508  0.00  0.00    -0.304 OA
ATOM     21  C   UNL d   1     -49.983  15.667  23.380  0.00  0.00     0.123 A 
ATOM     22  C   UNL d   1     -50.396  15.262  22.827  0.00  0.00     0.029 A 
ATOM     23  C   UNL d   1     -49.999  14.611  22.603  0.00  0.00     0.028 A 
ENDBRANCH  18  19
ENDBRANCH  16  18
ENDBRANCH  14  15
ENDBRANCH  13  14
ENDBRANCH   1  13
TORSDOF 10
ENDMDL
MODEL 2
REMARK VINA RESULT:      -4.9      0.582      6.754
REMARK  10 active torsions:
REMARK  status: ('A' for Active; 'I' for Inactive)
REMARK       I    between atoms: N_8  and  C_1 
REMARK    1  A    between atoms: C_11  and  C_1 
REMARK    2  A    between atoms: C_2  and  C_12 
REMARK       I    between atoms: N_7  and  C_2 
REMARK    3  A    between atoms: C_3  and  C_19 
REMARK    4  A    between atoms: C_4  and  C_20 
REMARK    5  A    between atoms: C_19  and  N_7 
REMARK    6  A    between atoms: C_20  and  N_8 
REMARK    7  A    between atoms: C_23  and  C_11 
REMARK    8  A    between atoms: C_12  and  C_22 
REMARK    9  A    between atoms: S_21  and  C_23 
REMARK   10  A    between atoms: C_22  and  S_21 
ROOT
ATOM      1  S   UNL d   1     -45.442  13.346  22.152  0.00  0.00    -0.086 SA
ENDROOT
BRANCH   1   2
ATOM      2  C   UNL d   1     -46.058  13.019  22.620  0.00  0.00     0.040 C 
BRANCH   2   3
ATOM      3  C   UNL d   1     -46.749  13.467  22.763  0.00  0.00     0.070 C 
BRANCH   3   4
ATOM      4  C   UNL d   1     -47.406  13.090  23.141  0.00  0.00     0.280 C 
ATOM      5  N   UNL d   1     -48.170  13.493  23.156  0.00  0.00    -0.204 NA
ATOM      6  O   UNL d   1     -47.321  12.335  23.497  0.00  0.00    -0.265 OA
BRANCH   5   7
ATOM      7  C   UNL d   1     -48.261  14.228  22.811  0.00  0.00     0.127 C 
BRANCH   7   8
ATOM      8  C   UNL d   1     -48.990  14.613  22.818  0.00  0.00     0.119 A 
ATOM      9  O   UNL d   1     -49.071  15.320  23.289  0.00  0.00    -0.304 OA
ATOM     10  C   UNL d   1     -49.860  15.572  23.180  0.00  0.00     0.123 A 
ATOM     11  C   UNL d   1     -50.258  15.074  22.683  0.00  0.00     0.029 A 
ATOM     12  C   UNL d   1     -49.707  14.473  22.458  0.00  0.00     0.028 A 
ENDBRANCH   7   8
ENDBRANCH   5   7
ENDBRANCH   3   4
ENDBRANCH   2   3
ENDBRANCH   1   2
BRANCH   1  13
ATOM     13  C   UNL d   1     -44.707  12.933  22.125  0.00  0.00     0.040 C 
BRANCH  13  14
ATOM     14  C   UNL d   1     -44.243  12.946  21.410  0.00  0.00     0.070 C 
BRANCH  14  15
ATOM     15  C   UNL d   1     -43.432  12.819  21.462  0.00  0.00     0.280 C 
ATOM     16  N   UNL d   1     -42.896  13.390  21.092  0.00  0.00    -0.204 NA
ATOM     17  O   UNL d   1     -43.106  12.159  21.859  0.00  0.00    -0.265 OA
BRANCH  16  18
ATOM     18  C   UNL d   1     -42.103  13.254  21.151  0.00  0.00     0.127 C 
BRANCH  18  19
ATOM     19  C   UNL d   1     -41.544  13.765  20.787  0.00  0.00     0.119 A 
ATOM     20  O   UNL d   1     -41.281  13.724  20.005  0.00  0.00    -0.304 OA
ATOM     21  C   UNL d   1     -40.713  14.364  19.899  0.00  0.00     0.123 A 
ATOM     22  C   UNL d   1     -40.673  14.738  20.604  0.00  0.00     0.029 A 
ATOM     23  C   UNL d   1     -41.157  14.395  21.132  0.00  0.00     0.028 A 
ENDBRANCH  18  19
ENDBRANCH  16  18
ENDBRANCH  14  15
ENDBRANCH  13  14
ENDBRANCH   1  13
TORSDOF 10
ENDMDL
MODEL 3
REMARK VINA RESULT:      -4.8      2.328      7.034
REMARK  10 active torsions:
REMARK  status: ('A' for Active; 'I' for Inactive)
REMARK       I    between atoms: N_8  and  C_1 
REMARK    1  A    between atoms: C_11  and  C_1 
REMARK    2  A    between atoms: C_2  and  C_12 
REMARK       I    between atoms: N_7  and  C_2 
REMARK    3  A    between atoms: C_3  and  C_19 
REMARK    4  A    between atoms: C_4  and  C_20 
REMARK    5  A    between atoms: C_19  and  N_7 
REMARK    6  A    between atoms: C_20  and  N_8 
REMARK    7  A    between atoms: C_23  and  C_11 
REMARK    8  A    between atoms: C_12  and  C_22 
REMARK    9  A    between atoms: S_21  and  C_23 
REMARK   10  A    between atoms: C_22  and  S_21 
ROOT
ATOM      1  S   UNL d   1     -42.156  13.787  21.085  0.00  0.00    -0.086 SA
ENDROOT
BRANCH   1   2
ATOM      2  C   UNL d   1     -42.580  13.083  21.254  0.00  0.00     0.040 C 
BRANCH   2   3
ATOM      3  C   UNL d   1     -43.391  13.127  21.457  0.00  0.00     0.070 C 
BRANCH   3   4
ATOM      4  C   UNL d   1     -43.734  12.492  21.898  0.00  0.00     0.280 C 
ATOM      5  N   UNL d   1     -44.548  12.567  22.178  0.00  0.00    -0.204 NA
ATOM      6  O   UNL d   1     -43.294  11.797  22.064  0.00  0.00    -0.265 OA
BRANCH   5   7
ATOM      7  C   UNL d   1     -44.984  13.240  22.021  0.00  0.00     0.127 C 
BRANCH   7   8
ATOM      8  C   UNL d   1     -45.738  13.342  22.338  0.00  0.00     0.119 A 
ATOM      9  O   UNL d   1     -45.844  13.928  22.950  0.00  0.00    -0.304 OA
ATOM     10  C   UNL d   1     -46.654  13.895  23.150  0.00  0.00     0.123 A 
ATOM     11  C   UNL d   1     -47.041  13.339  22.709  0.00  0.00     0.029 A 
ATOM     12  C   UNL d   1     -46.461  12.994  22.200  0.00  0.00     0.028 A 
ENDBRANCH   7   8
ENDBRANCH   5   7
ENDBRANCH   3   4
ENDBRANCH   2   3
ENDBRANCH   1   2
BRANCH   1  13
ATOM     13  C   UNL d   1     -41.479  13.729  20.585  0.00  0.00     0.040 C 
BRANCH  13  14
ATOM     14  C   UNL d   1     -41.043  14.432  20.383  0.00  0.00     0.070 C 
BRANCH  14  15
ATOM     15  C   UNL d   1     -40.556  14.420  19.722  0.00  0.00     0.280 C 
ATOM     16  N   UNL d   1     -40.822  14.818  19.000  0.00  0.00    -0.204 NA
ATOM     17  O   UNL d   1     -39.812  14.036  19.720  0.00  0.00    -0.265 OA
BRANCH  16  18
ATOM     18  C   UNL d   1     -40.334  14.798  18.358  0.00  0.00     0.127 C 
BRANCH  18  19
ATOM     19  C   UNL d   1     -40.548  15.169  17.635  0.00  0.00     0.119 A 
ATOM     20  O   UNL d   1     -41.256  15.066  17.224  0.00  0.00    -0.304 OA
ATOM     21  C   UNL d   1     -41.211  15.562  16.521  0.00  0.00     0.123 A 
ATOM     22  C   UNL d   1     -40.498  15.922  16.553  0.00  0.00     0.029 A 
ATOM     23  C   UNL d   1     -40.101  15.698  17.204  0.00  0.00     0.028 A 
ENDBRANCH  18  19
ENDBRANCH  16  18
ENDBRANCH  14  15
ENDBRANCH  13  14
ENDBRANCH   1  13
TORSDOF 10
ENDMDL
MODEL 4
REMARK VINA RESULT:      -4.7      2.033      3.478
REMARK  10 active torsions:
REMARK  status: ('A' for Active; 'I' for Inactive)
REMARK       I    between atoms: N_8  and  C_1 
REMARK    1  A    between atoms: C_11  and  C_1 
REMARK    2  A    between atoms: C_2  and  C_12 
REMARK       I    between atoms: N_7  and  C_2 
REMARK    3  A    between atoms: C_3  and  C_19 
REMARK    4  A    between atoms: C_4  and  C_20 
REMARK    5  A    between atoms: C_19  and  N_7 
REMARK    6  A    between atoms: C_20  and  N_8 
REMARK    7  A    between atoms: C_23  and  C_11 
REMARK    8  A    between atoms: C_12  and  C_22 
REMARK    9  A    between atoms: S_21  and  C_23 
REMARK   10  A    between atoms: C_22  and  S_21 
ROOT
ATOM      1  S   UNL d   1     -42.295  13.230  20.909  0.00  0.00    -0.086 SA
ENDROOT
BRANCH   1   2
ATOM      2  C   UNL d   1     -41.755  13.868  20.983  0.00  0.00     0.040 C 
BRANCH   2   3
ATOM      3  C   UNL d   1     -41.171  13.987  20.396  0.00  0.00     0.070 C 
BRANCH   3   4
ATOM      4  C   UNL d   1     -40.782  14.737  20.356  0.00  0.00     0.280 C 
ATOM      5  N   UNL d   1     -40.476  15.011  19.597  0.00  0.00    -0.204 NA
ATOM      6  O   UNL d   1     -40.693  15.212  21.042  0.00  0.00    -0.265 OA
BRANCH   5   7
ATOM      7  C   UNL d   1     -40.558  14.555  18.924  0.00  0.00     0.127 C 
BRANCH   7   8
ATOM      8  C   UNL d   1     -40.368  14.857  18.180  0.00  0.00     0.119 A 
ATOM      9  O   UNL d   1     -40.927  14.748  17.544  0.00  0.00    -0.304 OA
ATOM     10  C   UNL d   1     -40.577  15.110  16.877  0.00  0.00     0.123 A 
ATOM     11  C   UNL d   1     -39.857  15.425  17.061  0.00  0.00     0.029 A 
ATOM     12  C   UNL d   1     -39.729  15.264  17.881  0.00  0.00     0.028 A 
ENDBRANCH   7   8
ENDBRANCH   5   7
ENDBRANCH   3   4
ENDBRANCH   2   3
ENDBRANCH   1   2
BRANCH   1  13
ATOM     13  C   UNL d   1     -42.890  13.146  21.500  0.00  0.00     0.040 C 
BRANCH  13  14
ATOM     14  C   UNL d   1     -43.670  12.882  21.279  0.00  0.00     0.070 C 
BRANCH  14  15
ATOM     15  C   UNL d   1     -44.206  12.691  21.872  0.00  0.00     0.280 C 
ATOM     16  N   UNL d   1     -44.940  13.147  21.933  0.00  0.00    -0.204 NA
ATOM     17  O   UNL d   1     -44.069  12.073  22.419  0.00  0.00    -0.265 OA
BRANCH  16  18
ATOM     18  C   UNL d   1     -45.458  12.949  22.520  0.00  0.00     0.127 C 
BRANCH  18  19
ATOM     19  C   UNL d   1     -46.213  13.312  22.576  0.00  0.00     0.119 A 
ATOM     20  O   UNL d   1     -46.920  13.021  22.263  0.00  0.00    -0.304 OA
ATOM     21  C   UNL d   1     -47.535  13.589  22.467  0.00  0.00     0.123 A 
ATOM     22  C   UNL d   1     -47.170  14.169  22.878  0.00  0.00     0.029 A 
ATOM     23  C   UNL d   1     -46.393  14.016  22.947  0.00  0.00     0.028 A 
ENDBRANCH  18  19
ENDBRANCH  16  18
ENDBRANCH  14  15
ENDBRANCH  13  14
ENDBRANCH   1  13
TORSDOF 10
ENDMDL
MODEL 5
REMARK VINA RESULT:      -3.7      1.887      7.146
REMARK  10 active torsions:
REMARK  status: ('A' for Active; 'I' for Inactive)
REMARK       I    between atoms: N_8  and  C_1 
REMARK    1  A    between atoms: C_11  and  C_1 
REMARK    2  A    between atoms: C_2  and  C_12 
REMARK       I    between atoms: N_7  and  C_2 
REMARK    3  A    between atoms: C_3  and  C_19 
REMARK    4  A    between atoms: C_4  and  C_20 
REMARK    5  A    between atoms: C_19  and  N_7 
REMARK    6  A    between atoms: C_20  and  N_8 
REMARK    7  A    between atoms: C_23  and  C_11 
REMARK    8  A    between atoms: C_12  and  C_22 
REMARK    9  A    between atoms: S_21  and  C_23 
REMARK   10  A    between atoms: C_22  and  S_21 
ROOT
ATOM      1  S   UNL d   1     -42.726  13.403  20.942  0.00  0.00    -0.086 SA
ENDROOT
BRANCH   1   2
ATOM      2  C   UNL d   1     -43.092  12.871  21.479  0.00  0.00     0.040 C 
BRANCH   2   3
ATOM      3  C   UNL d   1     -43.915  12.925  21.618  0.00  0.00     0.070 C 
BRANCH   3   4
ATOM      4  C   UNL d   1     -44.262  12.422  22.203  0.00  0.00     0.280 C 
ATOM      5  N   UNL d   1     -45.051  12.606  22.500  0.00  0.00    -0.204 NA
ATOM      6  O   UNL d   1     -43.847  11.753  22.495  0.00  0.00    -0.265 OA
BRANCH   5   7
ATOM      7  C   UNL d   1     -45.462  13.255  22.222  0.00  0.00     0.127 C 
BRANCH   7   8
ATOM      8  C   UNL d   1     -46.225  13.421  22.486  0.00  0.00     0.119 A 
ATOM      9  O   UNL d   1     -46.880  13.259  21.964  0.00  0.00    -0.304 OA
ATOM     10  C   UNL d   1     -47.563  13.483  22.387  0.00  0.00     0.123 A 
ATOM     11  C   UNL d   1     -47.373  13.767  23.119  0.00  0.00     0.029 A 
ATOM     12  C   UNL d   1     -46.530  13.726  23.177  0.00  0.00     0.028 A 
ENDBRANCH   7   8
ENDBRANCH   5   7
ENDBRANCH   3   4
ENDBRANCH   2   3
ENDBRANCH   1   2
BRANCH   1  13
ATOM     13  C   UNL d   1     -41.901  13.554  21.038  0.00  0.00     0.040 C 
BRANCH  13  14
ATOM     14  C   UNL d   1     -41.581  14.306  20.799  0.00  0.00     0.070 C 
BRANCH  14  15
ATOM     15  C   UNL d   1     -40.771  14.371  20.678  0.00  0.00     0.280 C 
ATOM     16  N   UNL d   1     -40.278  14.689  21.315  0.00  0.00    -0.204 NA
ATOM     17  O   UNL d   1     -40.404  14.141  19.962  0.00  0.00    -0.265 OA
BRANCH  16  18
ATOM     18  C   UNL d   1     -39.484  14.747  21.183  0.00  0.00     0.127 C 
BRANCH  18  19
ATOM     19  C   UNL d   1     -38.970  15.091  21.753  0.00  0.00     0.119 A 
ATOM     20  O   UNL d   1     -38.578  15.815  21.683  0.00  0.00    -0.304 OA
ATOM     21  C   UNL d   1     -38.122  15.922  22.407  0.00  0.00     0.123 A 
ATOM     22  C   UNL d   1     -38.265  15.274  22.852  0.00  0.00     0.029 A 
ATOM     23  C   UNL d   1     -38.762  14.780  22.477  0.00  0.00     0.028 A 
ENDBRANCH  18  19
ENDBRANCH  16  18
ENDBRANCH  14  15
ENDBRANCH  13  14
ENDBRANCH   1  13
TORSDOF 10
ENDMDL
