MODEL 1
REMARK VINA RESULT:      -3.1      0.000      0.000
REMARK  7 active torsions:
REMARK  status: ('A' for Active; 'I' for Inactive)
REMARK    1  A    between atoms: C_3  and  C_1 
REMARK    2  A    between atoms: C_4  and  C_1 
REMARK    3  A    between atoms: C_2  and  C_5 
REMARK    4  A    between atoms: O_14  and  C_2 
REMARK    5  A    between atoms: C_6  and  C_3 
REMARK    6  A    between atoms: C_13  and  C_4 
REMARK    7  A    between atoms: O_20  and  C_15 
ROOT
ATOM      1  C   UNL d   1      32.530  18.489 -23.320  0.00  0.00     0.042 C 
ENDROOT
BRANCH   1   2
ATOM      2  C   UNL d   1      32.533  17.851 -23.845  0.00  0.00     0.196 C 
ATOM      3  O   UNL d   1      33.214  17.662 -24.269  0.00  0.00    -0.287 OA
BRANCH   2   4
ATOM      4  C   UNL d   1      31.850  17.404 -23.940  0.00  0.00     0.039 A 
ATOM      5  C   UNL d   1      31.216  17.703 -24.388  0.00  0.00     0.005 A 
ATOM      6  C   UNL d   1      30.530  17.252 -24.483  0.00  0.00     0.024 A 
ATOM      7  C   UNL d   1      30.481  16.505 -24.132  0.00  0.00     0.094 A 
ATOM      8  C   UNL d   1      31.109  16.209 -23.688  0.00  0.00     0.024 A 
ATOM      9  C   UNL d   1      31.793  16.657 -23.592  0.00  0.00     0.005 A 
BRANCH   7  10
ATOM     10  O   UNL d   1      29.798  16.058 -24.228  0.00  0.00    -0.328 OA
ATOM     11  C   UNL d   1      29.154  16.166 -23.715  0.00  0.00     0.181 C 
ENDBRANCH   7  10
ENDBRANCH   2   4
ENDBRANCH   1   2
BRANCH   1  12
ATOM     12  C   UNL d   1      33.241  18.875 -23.138  0.00  0.00     0.003 C 
BRANCH  12  13
ATOM     13  C   UNL d   1      33.236  19.552 -22.670  0.00  0.00     0.000 A 
ATOM     14  C   UNL d   1      33.239  20.286 -23.025  0.00  0.00     0.000 A 
ATOM     15  C   UNL d   1      33.235  20.969 -22.561  0.00  0.00     0.005 A 
ATOM     16  C   UNL d   1      33.227  20.905 -21.731  0.00  0.00     0.063 A 
ATOM     17  C   UNL d   1      33.224  20.160 -21.379  0.00  0.00     0.005 A 
ATOM     18  C   UNL d   1      33.229  19.484 -21.846  0.00  0.00     0.000 A 
BRANCH  16  19
ATOM     19  C   UNL d   1      33.222  21.582 -21.262  0.00  0.00     0.296 C 
ATOM     20  O   UNL d   1      33.206  22.327 -21.614  0.00  0.00    -0.259 OA
BRANCH  19  21
ATOM     21  O   UNL d   1      33.233  21.513 -20.443  0.00  0.00    -0.296 OA
ATOM     22  C   UNL d   1      33.008  22.146 -19.965  0.00  0.00     0.185 C 
ENDBRANCH  19  21
ENDBRANCH  16  19
ENDBRANCH  12  13
ENDBRANCH   1  12
TORSDOF 7
ENDMDL
MODEL 2
REMARK VINA RESULT:      -3.0      0.656      1.176
REMARK  7 active torsions:
REMARK  status: ('A' for Active; 'I' for Inactive)
REMARK    1  A    between atoms: C_3  and  C_1 
REMARK    2  A    between atoms: C_4  and  C_1 
REMARK    3  A    between atoms: C_2  and  C_5 
REMARK    4  A    between atoms: O_14  and  C_2 
REMARK    5  A    between atoms: C_6  and  C_3 
REMARK    6  A    between atoms: C_13  and  C_4 
REMARK    7  A    between atoms: O_20  and  C_15 
ROOT
ATOM      1  C   UNL d   1      32.690  18.802 -23.083  0.00  0.00     0.042 C 
ENDROOT
BRANCH   1   2
ATOM      2  C   UNL d   1      32.687  18.366 -23.784  0.00  0.00     0.196 C 
ATOM      3  O   UNL d   1      33.174  18.579 -24.413  0.00  0.00    -0.287 OA
BRANCH   2   4
ATOM      4  C   UNL d   1      32.190  17.713 -23.850  0.00  0.00     0.039 A 
ATOM      5  C   UNL d   1      32.412  16.985 -23.513  0.00  0.00     0.005 A 
ATOM      6  C   UNL d   1      31.912  16.331 -23.581  0.00  0.00     0.024 A 
ATOM      7  C   UNL d   1      31.194  16.406 -23.985  0.00  0.00     0.094 A 
ATOM      8  C   UNL d   1      30.975  17.127 -24.318  0.00  0.00     0.024 A 
ATOM      9  C   UNL d   1      31.471  17.779 -24.252  0.00  0.00     0.005 A 
BRANCH   7  10
ATOM     10  O   UNL d   1      30.699  15.754 -24.051  0.00  0.00    -0.328 OA
ATOM     11  C   UNL d   1      29.993  15.722 -23.617  0.00  0.00     0.181 C 
ENDBRANCH   7  10
ENDBRANCH   2   4
ENDBRANCH   1   2
BRANCH   1  12
ATOM     12  C   UNL d   1      33.240  19.415 -22.984  0.00  0.00     0.003 C 
BRANCH  12  13
ATOM     13  C   UNL d   1      33.133  19.975 -22.391  0.00  0.00     0.000 A 
ATOM     14  C   UNL d   1      33.241  19.760 -21.611  0.00  0.00     0.000 A 
ATOM     15  C   UNL d   1      33.135  20.317 -21.010  0.00  0.00     0.005 A 
ATOM     16  C   UNL d   1      32.918  21.097 -21.204  0.00  0.00     0.063 A 
ATOM     17  C   UNL d   1      32.811  21.307 -21.993  0.00  0.00     0.005 A 
ATOM     18  C   UNL d   1      32.918  20.748 -22.586  0.00  0.00     0.000 A 
BRANCH  16  19
ATOM     19  C   UNL d   1      32.811  21.657 -20.611  0.00  0.00     0.296 C 
ATOM     20  O   UNL d   1      33.155  21.545 -19.870  0.00  0.00    -0.259 OA
BRANCH  19  21
ATOM     21  O   UNL d   1      32.359  22.329 -20.758  0.00  0.00    -0.296 OA
ATOM     22  C   UNL d   1      32.289  22.920 -20.188  0.00  0.00     0.185 C 
ENDBRANCH  19  21
ENDBRANCH  16  19
ENDBRANCH  12  13
ENDBRANCH   1  12
TORSDOF 7
ENDMDL
MODEL 3
REMARK VINA RESULT:      -2.3      1.061      5.363
REMARK  7 active torsions:
REMARK  status: ('A' for Active; 'I' for Inactive)
REMARK    1  A    between atoms: C_3  and  C_1 
REMARK    2  A    between atoms: C_4  and  C_1 
REMARK    3  A    between atoms: C_2  and  C_5 
REMARK    4  A    between atoms: O_14  and  C_2 
REMARK    5  A    between atoms: C_6  and  C_3 
REMARK    6  A    between atoms: C_13  and  C_4 
REMARK    7  A    between atoms: O_20  and  C_15 
ROOT
ATOM      1  C   UNL d   1      32.712  19.978 -22.321  0.00  0.00     0.042 C 
ENDROOT
BRANCH   1   2
ATOM      2  C   UNL d   1      32.897  20.268 -21.570  0.00  0.00     0.196 C 
ATOM      3  O   UNL d   1      33.240  19.777 -21.004  0.00  0.00    -0.287 OA
BRANCH   2   4
ATOM      4  C   UNL d   1      32.734  21.053 -21.389  0.00  0.00     0.039 A 
ATOM      5  C   UNL d   1      32.059  21.247 -20.943  0.00  0.00     0.005 A 
ATOM      6  C   UNL d   1      31.897  22.037 -20.762  0.00  0.00     0.024 A 
ATOM      7  C   UNL d   1      32.410  22.629 -21.027  0.00  0.00     0.094 A 
ATOM      8  C   UNL d   1      33.078  22.437 -21.469  0.00  0.00     0.024 A 
ATOM      9  C   UNL d   1      33.241  21.651 -21.650  0.00  0.00     0.005 A 
BRANCH   7  10
ATOM     10  O   UNL d   1      32.247  23.414 -20.846  0.00  0.00    -0.328 OA
ATOM     11  C   UNL d   1      32.120  23.642 -20.058  0.00  0.00     0.181 C 
ENDBRANCH   7  10
ENDBRANCH   2   4
ENDBRANCH   1   2
BRANCH   1  12
ATOM     12  C   UNL d   1      33.188  19.392 -22.663  0.00  0.00     0.003 C 
BRANCH  12  13
ATOM     13  C   UNL d   1      32.846  18.785 -23.101  0.00  0.00     0.000 A 
ATOM     14  C   UNL d   1      32.863  18.022 -22.812  0.00  0.00     0.000 A 
ATOM     15  C   UNL d   1      32.522  17.409 -23.247  0.00  0.00     0.005 A 
ATOM     16  C   UNL d   1      32.161  17.571 -23.980  0.00  0.00     0.063 A 
ATOM     17  C   UNL d   1      32.148  18.344 -24.265  0.00  0.00     0.005 A 
ATOM     18  C   UNL d   1      32.490  18.951 -23.828  0.00  0.00     0.000 A 
BRANCH  16  19
ATOM     19  C   UNL d   1      31.819  16.965 -24.418  0.00  0.00     0.296 C 
ATOM     20  O   UNL d   1      32.245  16.602 -25.023  0.00  0.00    -0.259 OA
BRANCH  19  21
ATOM     21  O   UNL d   1      31.052  16.721 -24.251  0.00  0.00    -0.296 OA
ATOM     22  C   UNL d   1      30.717  16.084 -24.653  0.00  0.00     0.185 C 
ENDBRANCH  19  21
ENDBRANCH  16  19
ENDBRANCH  12  13
ENDBRANCH   1  12
TORSDOF 7
ENDMDL
MODEL 4
REMARK VINA RESULT:      -1.6      0.909      5.327
REMARK  7 active torsions:
REMARK  status: ('A' for Active; 'I' for Inactive)
REMARK    1  A    between atoms: C_3  and  C_1 
REMARK    2  A    between atoms: C_4  and  C_1 
REMARK    3  A    between atoms: C_2  and  C_5 
REMARK    4  A    between atoms: O_14  and  C_2 
REMARK    5  A    between atoms: C_6  and  C_3 
REMARK    6  A    between atoms: C_13  and  C_4 
REMARK    7  A    between atoms: O_20  and  C_15 
ROOT
ATOM      1  C   UNL d   1      32.322  18.537 -23.158  0.00  0.00     0.042 C 
ENDROOT
BRANCH   1   2
ATOM      2  C   UNL d   1      32.833  18.799 -22.565  0.00  0.00     0.196 C 
ATOM      3  O   UNL d   1      33.240  18.260 -22.094  0.00  0.00    -0.287 OA
BRANCH   2   4
ATOM      4  C   UNL d   1      32.933  19.607 -22.447  0.00  0.00     0.039 A 
ATOM      5  C   UNL d   1      32.888  19.925 -21.680  0.00  0.00     0.005 A 
ATOM      6  C   UNL d   1      32.989  20.737 -21.564  0.00  0.00     0.024 A 
ATOM      7  C   UNL d   1      33.135  21.227 -22.213  0.00  0.00     0.094 A 
ATOM      8  C   UNL d   1      33.180  20.911 -22.973  0.00  0.00     0.024 A 
ATOM      9  C   UNL d   1      33.080  20.104 -23.091  0.00  0.00     0.005 A 
BRANCH   7  10
ATOM     10  O   UNL d   1      33.235  22.034 -22.095  0.00  0.00    -0.328 OA
ATOM     11  C   UNL d   1      32.580  22.515 -21.929  0.00  0.00     0.181 C 
ENDBRANCH   7  10
ENDBRANCH   2   4
ENDBRANCH   1   2
BRANCH   1  12
ATOM     12  C   UNL d   1      32.388  17.761 -23.443  0.00  0.00     0.003 C 
BRANCH  12  13
ATOM     13  C   UNL d   1      31.734  17.383 -23.770  0.00  0.00     0.000 A 
ATOM     14  C   UNL d   1      31.208  17.812 -24.223  0.00  0.00     0.000 A 
ATOM     15  C   UNL d   1      30.550  17.439 -24.555  0.00  0.00     0.005 A 
ATOM     16  C   UNL d   1      30.426  16.626 -24.425  0.00  0.00     0.063 A 
ATOM     17  C   UNL d   1      30.961  16.200 -23.966  0.00  0.00     0.005 A 
ATOM     18  C   UNL d   1      31.614  16.576 -23.639  0.00  0.00     0.000 A 
BRANCH  16  19
ATOM     19  C   UNL d   1      29.772  16.248 -24.752  0.00  0.00     0.296 C 
ATOM     20  O   UNL d   1      29.848  15.491 -25.069  0.00  0.00    -0.259 OA
BRANCH  19  21
ATOM     21  O   UNL d   1      29.042  16.627 -24.762  0.00  0.00    -0.296 OA
ATOM     22  C   UNL d   1      28.368  16.233 -25.026  0.00  0.00     0.185 C 
ENDBRANCH  19  21
ENDBRANCH  16  19
ENDBRANCH  12  13
ENDBRANCH   1  12
TORSDOF 7
ENDMDL
MODEL 5
REMARK VINA RESULT:      -1.2      1.264      2.331
REMARK  7 active torsions:
REMARK  status: ('A' for Active; 'I' for Inactive)
REMARK    1  A    between atoms: C_3  and  C_1 
REMARK    2  A    between atoms: C_4  and  C_1 
REMARK    3  A    between atoms: C_2  and  C_5 
REMARK    4  A    between atoms: O_14  and  C_2 
REMARK    5  A    between atoms: C_6  and  C_3 
REMARK    6  A    between atoms: C_13  and  C_4 
REMARK    7  A    between atoms: O_20  and  C_15 
ROOT
ATOM      1  C   UNL d   1      31.096  16.936 -24.050  0.00  0.00     0.042 C 
ENDROOT
BRANCH   1   2
ATOM      2  C   UNL d   1      30.760  16.318 -24.482  0.00  0.00     0.196 C 
ATOM      3  O   UNL d   1      31.201  15.918 -25.052  0.00  0.00    -0.287 OA
BRANCH   2   4
ATOM      4  C   UNL d   1      29.979  16.103 -24.340  0.00  0.00     0.039 A 
ATOM      5  C   UNL d   1      29.384  16.310 -24.884  0.00  0.00     0.005 A 
ATOM      6  C   UNL d   1      28.601  16.093 -24.739  0.00  0.00     0.024 A 
ATOM      7  C   UNL d   1      28.414  15.672 -24.052  0.00  0.00     0.094 A 
ATOM      8  C   UNL d   1      29.003  15.468 -23.513  0.00  0.00     0.024 A 
ATOM      9  C   UNL d   1      29.784  15.682 -23.656  0.00  0.00     0.005 A 
BRANCH   7  10
ATOM     10  O   UNL d   1      27.634  15.458 -23.910  0.00  0.00    -0.328 OA
ATOM     11  C   UNL d   1      27.277  15.641 -23.184  0.00  0.00     0.181 C 
ENDBRANCH   7  10
ENDBRANCH   2   4
ENDBRANCH   1   2
BRANCH   1  12
ATOM     12  C   UNL d   1      31.886  17.149 -24.184  0.00  0.00     0.003 C 
BRANCH  12  13
ATOM     13  C   UNL d   1      32.187  17.846 -23.866  0.00  0.00     0.000 A 
ATOM     14  C   UNL d   1      31.836  18.558 -24.055  0.00  0.00     0.000 A 
ATOM     15  C   UNL d   1      32.132  19.261 -23.739  0.00  0.00     0.005 A 
ATOM     16  C   UNL d   1      32.789  19.240 -23.227  0.00  0.00     0.063 A 
ATOM     17  C   UNL d   1      33.138  18.518 -23.041  0.00  0.00     0.005 A 
ATOM     18  C   UNL d   1      32.838  17.821 -23.358  0.00  0.00     0.000 A 
BRANCH  16  19
ATOM     19  C   UNL d   1      33.089  19.937 -22.909  0.00  0.00     0.296 C 
ATOM     20  O   UNL d   1      33.241  20.582 -23.398  0.00  0.00    -0.259 OA
BRANCH  19  21
ATOM     21  O   UNL d   1      33.237  19.988 -22.101  0.00  0.00    -0.296 OA
ATOM     22  C   UNL d   1      32.918  20.603 -21.654  0.00  0.00     0.185 C 
ENDBRANCH  19  21
ENDBRANCH  16  19
ENDBRANCH  12  13
ENDBRANCH   1  12
TORSDOF 7
ENDMDL
MODEL 6
REMARK VINA RESULT:      -0.2      2.069      4.630
REMARK  7 active torsions:
REMARK  status: ('A' for Active; 'I' for Inactive)
REMARK    1  A    between atoms: C_3  and  C_1 
REMARK    2  A    between atoms: C_4  and  C_1 
REMARK    3  A    between atoms: C_2  and  C_5 
REMARK    4  A    between atoms: O_14  and  C_2 
REMARK    5  A    between atoms: C_6  and  C_3 
REMARK    6  A    between atoms: C_13  and  C_4 
REMARK    7  A    between atoms: O_20  and  C_15 
ROOT
ATOM      1  C   UNL d   1      32.769  21.906 -20.475  0.00  0.00     0.042 C 
ENDROOT
BRANCH   1   2
ATOM      2  C   UNL d   1      32.827  21.840 -21.296  0.00  0.00     0.196 C 
ATOM      3  O   UNL d   1      32.825  22.513 -21.772  0.00  0.00    -0.287 OA
BRANCH   2   4
ATOM      4  C   UNL d   1      32.888  21.094 -21.637  0.00  0.00     0.039 A 
ATOM      5  C   UNL d   1      32.920  21.016 -22.465  0.00  0.00     0.005 A 
ATOM      6  C   UNL d   1      32.981  20.266 -22.806  0.00  0.00     0.024 A 
ATOM      7  C   UNL d   1      33.010  19.598 -22.320  0.00  0.00     0.094 A 
ATOM      8  C   UNL d   1      32.978  19.676 -21.500  0.00  0.00     0.024 A 
ATOM      9  C   UNL d   1      32.917  20.421 -21.159  0.00  0.00     0.005 A 
BRANCH   7  10
ATOM     10  O   UNL d   1      33.070  18.854 -22.662  0.00  0.00    -0.328 OA
ATOM     11  C   UNL d   1      32.727  18.706 -23.402  0.00  0.00     0.181 C 
ENDBRANCH   7  10
ENDBRANCH   2   4
ENDBRANCH   1   2
BRANCH   1  12
ATOM     12  C   UNL d   1      32.579  22.638 -20.134  0.00  0.00     0.003 C 
BRANCH  12  13
ATOM     13  C   UNL d   1      32.636  22.743 -19.320  0.00  0.00     0.000 A 
ATOM     14  C   UNL d   1      32.848  22.112 -18.848  0.00  0.00     0.000 A 
ATOM     15  C   UNL d   1      32.907  22.210 -18.030  0.00  0.00     0.005 A 
ATOM     16  C   UNL d   1      32.750  22.954 -17.690  0.00  0.00     0.063 A 
ATOM     17  C   UNL d   1      32.537  23.587 -18.174  0.00  0.00     0.005 A 
ATOM     18  C   UNL d   1      32.480  23.482 -18.987  0.00  0.00     0.000 A 
BRANCH  16  19
ATOM     19  C   UNL d   1      32.807  23.059 -16.876  0.00  0.00     0.296 C 
ATOM     20  O   UNL d   1      32.439  23.702 -16.516  0.00  0.00    -0.259 OA
BRANCH  19  21
ATOM     21  O   UNL d   1      33.233  22.521 -16.423  0.00  0.00    -0.296 OA
ATOM     22  C   UNL d   1      33.085  22.442 -15.616  0.00  0.00     0.185 C 
ENDBRANCH  19  21
ENDBRANCH  16  19
ENDBRANCH  12  13
ENDBRANCH   1  12
TORSDOF 7
ENDMDL
