MODEL 1
REMARK VINA RESULT:      19.6      0.000      0.000
REMARK  4 active torsions:
REMARK  status: ('A' for Active; 'I' for Inactive)
REMARK    1  A    between atoms: C_7  and  C_1 
REMARK    2  A    between atoms: C_6  and  C_3 
REMARK    3  A    between atoms: O_15  and  C_8 
REMARK    4  A    between atoms: O_16  and  C_12 
ROOT
ATOM      1  C   UNL d   1      13.673  12.451  -3.397  0.00  0.00     0.042 A 
ATOM      2  C   UNL d   1      13.374  13.140  -3.735  0.00  0.00     0.098 A 
ATOM      3  C   UNL d   1      13.186  13.158  -4.533  0.00  0.00     0.048 A 
ATOM      4  C   UNL d   1      13.784  11.779  -3.856  0.00  0.00     0.005 A 
ATOM      5  C   UNL d   1      13.296  12.483  -5.000  0.00  0.00     0.096 A 
ATOM      6  C   UNL d   1      13.596  11.792  -4.659  0.00  0.00     0.024 A 
ENDROOT
BRANCH   1   7
ATOM      7  C   UNL d   1      13.861  12.439  -2.593  0.00  0.00     0.107 A 
ATOM      8  C   UNL d   1      14.992  12.837  -1.824  0.00  0.00     0.048 A 
ATOM      9  C   UNL d   1      14.606  12.591  -1.138  0.00  0.00     0.169 A 
ATOM     10  N   UNL d   1      13.849  12.268  -1.168  0.00  0.00    -0.142 NA
ATOM     11  N   UNL d   1      13.478  12.194  -1.904  0.00  0.00    -0.148 NA
BRANCH   9  12
ATOM     12  C   UNL d   1      14.984  12.669  -0.407  0.00  0.00     0.231 C 
ATOM     13  O   UNL d   1      15.005  13.403  -0.031  0.00  0.00    -0.643 OA
ATOM     14  O   UNL d   1      15.340  12.015  -0.054  0.00  0.00    -0.643 OA
ENDBRANCH   9  12
ENDBRANCH   1   7
BRANCH   2  15
ATOM     15  O   UNL d   1      13.265  13.815  -3.267  0.00  0.00    -0.328 OA
ATOM     16  C   UNL d   1      12.993  14.515  -3.615  0.00  0.00     0.181 C 
ENDBRANCH   2  15
BRANCH   5  17
ATOM     17  O   UNL d   1      13.106  12.501  -5.802  0.00  0.00    -0.328 OA
ATOM     18  C   UNL d   1      13.101  11.801  -6.244  0.00  0.00     0.181 C 
ENDBRANCH   5  17
TORSDOF 4
ENDMDL
