MODEL 1
REMARK VINA RESULT:      -5.7      0.000      0.000
REMARK  3 active torsions:
REMARK  status: ('A' for Active; 'I' for Inactive)
REMARK    1  A    between atoms: N_5  and  C_2 
REMARK    2  A    between atoms: C_9  and  C_3 
REMARK       I    between atoms: C_7  and  N_5 
REMARK    3  A    between atoms: C_8  and  C_7 
ROOT
ATOM      1  N   UNL d   1      58.678  -0.006  30.562  0.00  0.00    -0.200 NA
ATOM      2  C   UNL d   1      57.942   0.351  30.568  0.00  0.00     0.216 A 
ATOM      3  C   UNL d   1      58.968   0.042  29.781  0.00  0.00     0.172 A 
ATOM      4  N   UNL d   1      58.403   0.429  29.324  0.00  0.00    -0.187 NA
ATOM      5  S   UNL d   1      57.769   0.619  29.811  0.00  0.00     0.054 SA
ENDROOT
BRANCH   2   6
ATOM      6  N   UNL d   1      57.459   0.426  31.230  0.00  0.00    -0.181 NA
ATOM      7  C   UNL d   1      56.989  -0.212  31.470  0.00  0.00     0.281 C 
ATOM      8  O   UNL d   1      57.004  -0.917  31.051  0.00  0.00    -0.265 OA
BRANCH   7   9
ATOM      9  C   UNL d   1      56.508  -0.137  32.129  0.00  0.00     0.058 A 
ATOM     10  C   UNL d   1      56.251   0.606  32.368  0.00  0.00     0.005 A 
ATOM     11  C   UNL d   1      55.765   0.681  33.034  0.00  0.00     0.000 A 
ATOM     12  C   UNL d   1      55.538   0.014  33.455  0.00  0.00     0.000 A 
ATOM     13  C   UNL d   1      55.795  -0.737  33.217  0.00  0.00     0.000 A 
ATOM     14  C   UNL d   1      55.055   0.089  34.117  0.00  0.00     0.000 C 
ATOM     15  C   UNL d   1      56.281  -0.812  32.551  0.00  0.00     0.005 A 
ENDBRANCH   7   9
ENDBRANCH   2   6
BRANCH   3  16
ATOM     16  C   UNL d   1      59.687  -0.244  29.517  0.00  0.00     0.036 A 
ATOM     17  C   UNL d   1      60.378   0.189  29.666  0.00  0.00     0.003 A 
ATOM     18  C   UNL d   1      61.099  -0.109  29.395  0.00  0.00     0.000 A 
ATOM     19  C   UNL d   1      61.133  -0.829  28.981  0.00  0.00     0.000 A 
ATOM     20  C   UNL d   1      60.444  -1.249  28.839  0.00  0.00     0.000 A 
ATOM     21  C   UNL d   1      59.717  -0.958  29.107  0.00  0.00     0.003 A 
ENDBRANCH   3  16
TORSDOF 3
ENDMDL
MODEL 2
REMARK VINA RESULT:      -4.4      1.464      5.150
REMARK  3 active torsions:
REMARK  status: ('A' for Active; 'I' for Inactive)
REMARK    1  A    between atoms: N_5  and  C_2 
REMARK    2  A    between atoms: C_9  and  C_3 
REMARK       I    between atoms: C_7  and  N_5 
REMARK    3  A    between atoms: C_8  and  C_7 
ROOT
ATOM      1  N   UNL d   1      56.291   0.068  32.396  0.00  0.00    -0.200 NA
ATOM      2  C   UNL d   1      56.615  -0.493  31.897  0.00  0.00     0.216 A 
ATOM      3  C   UNL d   1      55.933  -0.343  33.028  0.00  0.00     0.172 A 
ATOM      4  N   UNL d   1      56.045  -1.148  32.903  0.00  0.00    -0.187 NA
ATOM      5  S   UNL d   1      56.467  -1.240  32.204  0.00  0.00     0.054 SA
ENDROOT
BRANCH   2   6
ATOM      6  N   UNL d   1      57.023  -0.328  31.201  0.00  0.00    -0.181 NA
ATOM      7  C   UNL d   1      57.775   0.018  31.238  0.00  0.00     0.281 C 
ATOM      8  O   UNL d   1      58.113   0.197  31.964  0.00  0.00    -0.265 OA
BRANCH   7   9
ATOM      9  C   UNL d   1      58.181   0.182  30.545  0.00  0.00     0.058 A 
ATOM     10  C   UNL d   1      57.767   0.379  29.863  0.00  0.00     0.005 A 
ATOM     11  C   UNL d   1      58.178   0.545  29.164  0.00  0.00     0.000 A 
ATOM     12  C   UNL d   1      58.998   0.513  29.151  0.00  0.00     0.000 A 
ATOM     13  C   UNL d   1      59.418   0.315  29.837  0.00  0.00     0.000 A 
ATOM     14  C   UNL d   1      59.406   0.678  28.455  0.00  0.00     0.000 C 
ATOM     15  C   UNL d   1      59.008   0.149  30.536  0.00  0.00     0.005 A 
ENDBRANCH   7   9
ENDBRANCH   2   6
BRANCH   3  16
ATOM     16  C   UNL d   1      55.540  -0.003  33.660  0.00  0.00     0.036 A 
ATOM     17  C   UNL d   1      55.974   0.273  34.309  0.00  0.00     0.003 A 
ATOM     18  C   UNL d   1      55.567   0.614  34.942  0.00  0.00     0.000 A 
ATOM     19  C   UNL d   1      54.738   0.680  34.929  0.00  0.00     0.000 A 
ATOM     20  C   UNL d   1      54.319   0.403  34.282  0.00  0.00     0.000 A 
ATOM     21  C   UNL d   1      54.718   0.060  33.644  0.00  0.00     0.003 A 
ENDBRANCH   3  16
TORSDOF 3
ENDMDL
MODEL 3
REMARK VINA RESULT:      -4.1      1.175      1.622
REMARK  3 active torsions:
REMARK  status: ('A' for Active; 'I' for Inactive)
REMARK    1  A    between atoms: N_5  and  C_2 
REMARK    2  A    between atoms: C_9  and  C_3 
REMARK       I    between atoms: C_7  and  N_5 
REMARK    3  A    between atoms: C_8  and  C_7 
ROOT
ATOM      1  N   UNL d   1      57.700   0.290  31.010  0.00  0.00    -0.200 NA
ATOM      2  C   UNL d   1      57.213  -0.170  31.479  0.00  0.00     0.216 A 
ATOM      3  C   UNL d   1      58.043  -0.216  30.442  0.00  0.00     0.172 A 
ATOM      4  N   UNL d   1      57.759  -0.976  30.574  0.00  0.00    -0.187 NA
ATOM      5  S   UNL d   1      57.246  -0.947  31.215  0.00  0.00     0.054 SA
ENDROOT
BRANCH   2   6
ATOM      6  N   UNL d   1      56.765   0.108  32.111  0.00  0.00    -0.181 NA
ATOM      7  C   UNL d   1      56.394  -0.430  32.619  0.00  0.00     0.281 C 
ATOM      8  O   UNL d   1      56.471  -1.238  32.494  0.00  0.00    -0.265 OA
BRANCH   7   9
ATOM      9  C   UNL d   1      55.948  -0.154  33.248  0.00  0.00     0.058 A 
ATOM     10  C   UNL d   1      56.320   0.172  33.904  0.00  0.00     0.005 A 
ATOM     11  C   UNL d   1      55.869   0.451  34.540  0.00  0.00     0.000 A 
ATOM     12  C   UNL d   1      55.050   0.403  34.516  0.00  0.00     0.000 A 
ATOM     13  C   UNL d   1      54.671   0.076  33.856  0.00  0.00     0.000 A 
ATOM     14  C   UNL d   1      54.602   0.681  35.148  0.00  0.00     0.000 C 
ATOM     15  C   UNL d   1      55.122  -0.203  33.220  0.00  0.00     0.005 A 
ENDBRANCH   7   9
ENDBRANCH   2   6
BRANCH   3  16
ATOM     16  C   UNL d   1      58.570   0.007  29.857  0.00  0.00     0.036 A 
ATOM     17  C   UNL d   1      58.407  -0.186  29.067  0.00  0.00     0.003 A 
ATOM     18  C   UNL d   1      58.946   0.043  28.484  0.00  0.00     0.000 A 
ATOM     19  C   UNL d   1      59.637   0.459  28.683  0.00  0.00     0.000 A 
ATOM     20  C   UNL d   1      59.788   0.645  29.467  0.00  0.00     0.000 A 
ATOM     21  C   UNL d   1      59.255   0.419  30.058  0.00  0.00     0.003 A 
ENDBRANCH   3  16
TORSDOF 3
ENDMDL
MODEL 4
REMARK VINA RESULT:      -3.5      1.069      5.000
REMARK  3 active torsions:
REMARK  status: ('A' for Active; 'I' for Inactive)
REMARK    1  A    between atoms: N_5  and  C_2 
REMARK    2  A    between atoms: C_9  and  C_3 
REMARK       I    between atoms: C_7  and  N_5 
REMARK    3  A    between atoms: C_8  and  C_7 
ROOT
ATOM      1  N   UNL d   1      57.199  -0.371  32.069  0.00  0.00    -0.200 NA
ATOM      2  C   UNL d   1      57.423  -0.259  31.290  0.00  0.00     0.216 A 
ATOM      3  C   UNL d   1      56.638   0.219  32.251  0.00  0.00     0.172 A 
ATOM      4  N   UNL d   1      56.529   0.682  31.579  0.00  0.00    -0.187 NA
ATOM      5  S   UNL d   1      57.015   0.386  30.986  0.00  0.00     0.054 SA
ENDROOT
BRANCH   2   6
ATOM      6  N   UNL d   1      57.969  -0.721  30.884  0.00  0.00    -0.181 NA
ATOM      7  C   UNL d   1      58.135  -0.559  30.089  0.00  0.00     0.281 C 
ATOM      8  O   UNL d   1      57.756   0.061  29.706  0.00  0.00    -0.265 OA
BRANCH   7   9
ATOM      9  C   UNL d   1      58.679  -1.019  29.685  0.00  0.00     0.058 A 
ATOM     10  C   UNL d   1      58.478  -1.779  29.447  0.00  0.00     0.005 A 
ATOM     11  C   UNL d   1      59.028  -2.244  29.038  0.00  0.00     0.000 A 
ATOM     12  C   UNL d   1      59.775  -1.945  28.871  0.00  0.00     0.000 A 
ATOM     13  C   UNL d   1      59.981  -1.180  29.110  0.00  0.00     0.000 A 
ATOM     14  C   UNL d   1      60.321  -2.408  28.465  0.00  0.00     0.000 C 
ATOM     15  C   UNL d   1      59.431  -0.715  29.518  0.00  0.00     0.005 A 
ENDBRANCH   7   9
ENDBRANCH   2   6
BRANCH   3  16
ATOM     16  C   UNL d   1      56.262   0.320  32.970  0.00  0.00     0.036 A 
ATOM     17  C   UNL d   1      55.435   0.366  32.996  0.00  0.00     0.003 A 
ATOM     18  C   UNL d   1      55.065   0.467  33.728  0.00  0.00     0.000 A 
ATOM     19  C   UNL d   1      55.513   0.522  34.426  0.00  0.00     0.000 A 
ATOM     20  C   UNL d   1      56.330   0.476  34.389  0.00  0.00     0.000 A 
ATOM     21  C   UNL d   1      56.709   0.374  33.661  0.00  0.00     0.003 A 
ENDBRANCH   3  16
TORSDOF 3
ENDMDL
