MODEL 1
REMARK VINA RESULT:      74.9      0.000      0.000
REMARK  5 active torsions:
REMARK  status: ('A' for Active; 'I' for Inactive)
REMARK    1  A    between atoms: C_3  and  C_1 
REMARK    2  A    between atoms: N_4  and  C_3 
REMARK    3  A    between atoms: C_6  and  C_3 
REMARK    4  A    between atoms: C_21  and  N_9 
REMARK    5  A    between atoms: C_25  and  C_21 
ROOT
ATOM      1  C   UNL d   1      60.233  48.703  51.014  0.00  0.00     0.073 C 
ENDROOT
BRANCH   1   2
ATOM      2  C   UNL d   1      59.517  48.955  50.667  0.00  0.00     0.057 A 
ATOM      3  C   UNL d   1      58.804  48.947  51.083  0.00  0.00     0.214 A 
ATOM      4  C   UNL d   1      58.106  49.195  50.736  0.00  0.00     0.120 A 
ATOM      5  O   UNL d   1      58.798  48.686  51.860  0.00  0.00    -0.285 OA
ATOM      6  N   UNL d   1      57.415  49.184  51.151  0.00  0.00    -0.241 NA
ATOM      7  C   UNL d   1      58.112  49.459  49.953  0.00  0.00     0.021 A 
ATOM      8  C   UNL d   1      56.713  49.433  50.803  0.00  0.00     0.099 A 
ATOM      9  C   UNL d   1      56.720  49.696  50.021  0.00  0.00     0.021 A 
ATOM     10  C   UNL d   1      57.429  49.708  49.594  0.00  0.00     0.003 A 
ATOM     11  C   UNL d   1      58.818  49.471  49.526  0.00  0.00     0.002 A 
ATOM     12  C   UNL d   1      59.523  49.218  49.884  0.00  0.00     0.005 A 
ENDBRANCH   1   2
BRANCH   1  13
ATOM     13  N   UNL d   1      60.622  48.057  50.694  0.00  0.00    -0.301 N 
ATOM     14  C   UNL d   1      61.104  48.148  50.026  0.00  0.00     0.100 A 
ATOM     15  C   UNL d   1      61.499  47.511  49.697  0.00  0.00     0.100 A 
ATOM     16  N   UNL d   1      61.409  46.749  50.048  0.00  0.00    -0.297 N 
ATOM     17  C   UNL d   1      60.936  46.645  50.706  0.00  0.00     0.100 A 
ATOM     18  C   UNL d   1      60.537  47.308  51.034  0.00  0.00     0.100 A 
BRANCH  16  19
ATOM     19  C   UNL d   1      61.799  46.100  49.727  0.00  0.00     0.126 C 
BRANCH  19  20
ATOM     20  C   UNL d   1      62.556  46.171  49.445  0.00  0.00     0.253 C 
ATOM     21  O   UNL d   1      62.927  45.535  49.070  0.00  0.00    -0.281 OA
ENDBRANCH  19  20
ENDBRANCH  16  19
ENDBRANCH   1  13
BRANCH   1  22
ATOM     22  C   UNL d   1      60.535  49.099  51.659  0.00  0.00     0.046 A 
ATOM     23  S   UNL d   1      61.318  49.338  51.681  0.00  0.00    -0.085 SA
ATOM     24  C   UNL d   1      61.440  49.708  52.382  0.00  0.00     0.035 A 
ATOM     25  C   UNL d   1      60.740  49.708  52.811  0.00  0.00     0.007 A 
ATOM     26  C   UNL d   1      60.172  49.330  52.367  0.00  0.00     0.009 A 
ENDBRANCH   1  22
TORSDOF 5
ENDMDL
