MODEL 1
REMARK VINA RESULT:      -9.5      0.000      0.000
REMARK  6 active torsions:
REMARK  status: ('A' for Active; 'I' for Inactive)
REMARK    1  A    between atoms: C_14  and  N_1 
REMARK    2  A    between atoms: S_12  and  C_3 
REMARK    3  A    between atoms: C_5  and  N_11 
REMARK    4  A    between atoms: C_15  and  C_8 
REMARK       I    between atoms: N_11  and  C_13 
REMARK    5  A    between atoms: C_17  and  S_12 
REMARK    6  A    between atoms: C_13  and  C_17 
ROOT
ATOM      1  N   UNL d   1      50.720  33.525  52.828  0.00  0.00    -0.181 NA
ATOM      2  C   UNL d   1      51.526  33.651  52.648  0.00  0.00     0.288 C 
ATOM      3  O   UNL d   1      51.812  34.410  52.585  0.00  0.00    -0.265 OA
ENDROOT
BRANCH   2   4
ATOM      4  C   UNL d   1      52.019  33.000  52.537  0.00  0.00     0.101 C 
BRANCH   4   5
ATOM      5  S   UNL d   1      52.608  32.845  53.090  0.00  0.00    -0.041 SA
BRANCH   5   6
ATOM      6  C   UNL d   1      52.930  32.093  53.134  0.00  0.00     0.219 A 
ATOM      7  N   UNL d   1      53.595  31.946  53.601  0.00  0.00    -0.186 N 
ATOM      8  N   UNL d   1      53.786  31.152  53.535  0.00  0.00    -0.038 NA
ATOM      9  N   UNL d   1      53.250  30.801  53.034  0.00  0.00    -0.022 NA
ATOM     10  N   UNL d   1      52.711  31.378  52.778  0.00  0.00    -0.101 NA
BRANCH   7  11
ATOM     11  C   UNL d   1      54.018  32.475  54.064  0.00  0.00     0.087 A 
ATOM     12  C   UNL d   1      53.812  32.585  54.864  0.00  0.00     0.019 A 
ATOM     13  C   UNL d   1      54.236  33.113  55.326  0.00  0.00     0.002 A 
ATOM     14  C   UNL d   1      54.865  33.538  55.009  0.00  0.00     0.000 A 
ATOM     15  C   UNL d   1      55.071  33.430  54.213  0.00  0.00     0.002 A 
ATOM     16  C   UNL d   1      54.648  32.898  53.738  0.00  0.00     0.019 A 
ENDBRANCH   7  11
ENDBRANCH   5   6
ENDBRANCH   4   5
ENDBRANCH   2   4
BRANCH   1  17
ATOM     17  C   UNL d   1      50.213  34.176  52.943  0.00  0.00     0.216 A 
ATOM     18  N   UNL d   1      49.536  34.363  52.505  0.00  0.00    -0.200 NA
ATOM     19  C   UNL d   1      49.218  35.050  52.818  0.00  0.00     0.172 A 
ATOM     20  N   UNL d   1      49.688  35.290  53.441  0.00  0.00    -0.187 NA
ATOM     21  S   UNL d   1      50.309  34.740  53.515  0.00  0.00     0.054 SA
BRANCH  19  22
ATOM     22  C   UNL d   1      48.550  35.495  52.612  0.00  0.00     0.036 A 
ATOM     23  C   UNL d   1      48.248  36.044  53.141  0.00  0.00     0.003 A 
ATOM     24  C   UNL d   1      47.578  36.492  52.937  0.00  0.00     0.000 A 
ATOM     25  C   UNL d   1      47.221  36.384  52.210  0.00  0.00     0.000 A 
ATOM     26  C   UNL d   1      47.530  35.825  51.675  0.00  0.00     0.000 A 
ATOM     27  C   UNL d   1      48.191  35.380  51.871  0.00  0.00     0.003 A 
ENDBRANCH  19  22
ENDBRANCH   1  17
TORSDOF 6
ENDMDL
MODEL 2
REMARK VINA RESULT:      -8.8      1.336      1.852
REMARK  6 active torsions:
REMARK  status: ('A' for Active; 'I' for Inactive)
REMARK    1  A    between atoms: C_14  and  N_1 
REMARK    2  A    between atoms: S_12  and  C_3 
REMARK    3  A    between atoms: C_5  and  N_11 
REMARK    4  A    between atoms: C_15  and  C_8 
REMARK       I    between atoms: N_11  and  C_13 
REMARK    5  A    between atoms: C_17  and  S_12 
REMARK    6  A    between atoms: C_13  and  C_17 
ROOT
ATOM      1  N   UNL d   1      51.274  34.447  53.611  0.00  0.00    -0.181 NA
ATOM      2  C   UNL d   1      52.044  34.643  53.353  0.00  0.00     0.288 C 
ATOM      3  O   UNL d   1      52.164  34.874  52.582  0.00  0.00    -0.265 OA
ENDROOT
BRANCH   2   4
ATOM      4  C   UNL d   1      52.670  34.598  53.886  0.00  0.00     0.101 C 
BRANCH   4   5
ATOM      5  S   UNL d   1      53.115  33.906  53.924  0.00  0.00    -0.041 SA
BRANCH   5   6
ATOM      6  C   UNL d   1      53.763  33.873  54.425  0.00  0.00     0.219 A 
ATOM      7  N   UNL d   1      54.172  33.164  54.537  0.00  0.00    -0.186 N 
ATOM      8  N   UNL d   1      54.785  33.301  55.062  0.00  0.00    -0.038 NA
ATOM      9  N   UNL d   1      54.765  34.084  55.281  0.00  0.00    -0.022 NA
ATOM     10  N   UNL d   1      54.131  34.451  54.889  0.00  0.00    -0.101 NA
BRANCH   7  11
ATOM     11  C   UNL d   1      54.022  32.431  54.199  0.00  0.00     0.087 A 
ATOM     12  C   UNL d   1      53.587  31.860  54.623  0.00  0.00     0.019 A 
ATOM     13  C   UNL d   1      53.438  31.128  54.285  0.00  0.00     0.002 A 
ATOM     14  C   UNL d   1      53.713  30.949  53.531  0.00  0.00     0.000 A 
ATOM     15  C   UNL d   1      54.146  31.517  53.108  0.00  0.00     0.002 A 
ATOM     16  C   UNL d   1      54.301  32.260  53.442  0.00  0.00     0.019 A 
ENDBRANCH   7  11
ENDBRANCH   5   6
ENDBRANCH   4   5
ENDBRANCH   2   4
BRANCH   1  17
ATOM     17  C   UNL d   1      50.633  34.489  53.080  0.00  0.00     0.216 A 
ATOM     18  N   UNL d   1      49.977  34.990  53.130  0.00  0.00    -0.200 NA
ATOM     19  C   UNL d   1      49.494  34.834  52.487  0.00  0.00     0.172 A 
ATOM     20  N   UNL d   1      49.843  34.245  52.041  0.00  0.00    -0.187 NA
ATOM     21  S   UNL d   1      50.555  34.032  52.416  0.00  0.00     0.054 SA
BRANCH  19  22
ATOM     22  C   UNL d   1      48.771  35.158  52.246  0.00  0.00     0.036 A 
ATOM     23  C   UNL d   1      48.374  35.679  52.739  0.00  0.00     0.003 A 
ATOM     24  C   UNL d   1      47.648  36.006  52.500  0.00  0.00     0.000 A 
ATOM     25  C   UNL d   1      47.330  35.807  51.774  0.00  0.00     0.000 A 
ATOM     26  C   UNL d   1      47.736  35.277  51.275  0.00  0.00     0.000 A 
ATOM     27  C   UNL d   1      48.453  34.952  51.506  0.00  0.00     0.003 A 
ENDBRANCH  19  22
ENDBRANCH   1  17
TORSDOF 6
ENDMDL
MODEL 3
REMARK VINA RESULT:      -8.0      1.491      5.983
REMARK  6 active torsions:
REMARK  status: ('A' for Active; 'I' for Inactive)
REMARK    1  A    between atoms: C_14  and  N_1 
REMARK    2  A    between atoms: S_12  and  C_3 
REMARK    3  A    between atoms: C_5  and  N_11 
REMARK    4  A    between atoms: C_15  and  C_8 
REMARK       I    between atoms: N_11  and  C_13 
REMARK    5  A    between atoms: C_17  and  S_12 
REMARK    6  A    between atoms: C_13  and  C_17 
ROOT
ATOM      1  N   UNL d   1      50.962  34.380  52.151  0.00  0.00    -0.181 NA
ATOM      2  C   UNL d   1      50.200  34.256  52.470  0.00  0.00     0.288 C 
ATOM      3  O   UNL d   1      50.122  33.954  53.222  0.00  0.00    -0.265 OA
ENDROOT
BRANCH   2   4
ATOM      4  C   UNL d   1      49.539  34.444  52.016  0.00  0.00     0.101 C 
BRANCH   4   5
ATOM      5  S   UNL d   1      48.927  34.875  52.358  0.00  0.00    -0.041 SA
BRANCH   5   6
ATOM      6  C   UNL d   1      48.274  35.073  51.905  0.00  0.00     0.219 A 
ATOM      7  N   UNL d   1      47.661  35.524  52.226  0.00  0.00    -0.186 N 
ATOM      8  N   UNL d   1      47.090  35.633  51.648  0.00  0.00    -0.038 NA
ATOM      9  N   UNL d   1      47.338  35.256  50.970  0.00  0.00    -0.022 NA
ATOM     10  N   UNL d   1      48.075  34.904  51.119  0.00  0.00    -0.101 NA
BRANCH   7  11
ATOM     11  C   UNL d   1      47.596  35.829  52.985  0.00  0.00     0.087 A 
ATOM     12  C   UNL d   1      48.139  36.404  53.250  0.00  0.00     0.019 A 
ATOM     13  C   UNL d   1      48.074  36.708  54.008  0.00  0.00     0.002 A 
ATOM     14  C   UNL d   1      47.478  36.452  54.514  0.00  0.00     0.000 A 
ATOM     15  C   UNL d   1      46.937  35.880  54.252  0.00  0.00     0.002 A 
ATOM     16  C   UNL d   1      46.995  35.567  53.487  0.00  0.00     0.019 A 
ENDBRANCH   7  11
ENDBRANCH   5   6
ENDBRANCH   4   5
ENDBRANCH   2   4
BRANCH   1  17
ATOM     17  C   UNL d   1      51.638  34.194  52.602  0.00  0.00     0.216 A 
ATOM     18  N   UNL d   1      51.920  33.440  52.787  0.00  0.00    -0.200 NA
ATOM     19  C   UNL d   1      52.597  33.530  53.240  0.00  0.00     0.172 A 
ATOM     20  N   UNL d   1      52.736  34.330  53.337  0.00  0.00    -0.187 NA
ATOM     21  S   UNL d   1      52.133  34.741  52.936  0.00  0.00     0.054 SA
BRANCH  19  22
ATOM     22  C   UNL d   1      53.113  32.979  53.582  0.00  0.00     0.036 A 
ATOM     23  C   UNL d   1      53.443  33.132  54.317  0.00  0.00     0.003 A 
ATOM     24  C   UNL d   1      53.961  32.581  54.662  0.00  0.00     0.000 A 
ATOM     25  C   UNL d   1      54.140  31.888  54.269  0.00  0.00     0.000 A 
ATOM     26  C   UNL d   1      53.802  31.735  53.522  0.00  0.00     0.000 A 
ATOM     27  C   UNL d   1      53.291  32.275  53.177  0.00  0.00     0.003 A 
ENDBRANCH  19  22
ENDBRANCH   1  17
TORSDOF 6
ENDMDL
