MODEL 1
REMARK VINA RESULT:      -1.8      0.000      0.000
REMARK  3 active torsions:
REMARK  status: ('A' for Active; 'I' for Inactive)
REMARK       I    between atoms: C_6  and  N_1 
REMARK    1  A    between atoms: C_11  and  C_5 
REMARK    2  A    between atoms: C_12  and  C_6 
REMARK    3  A    between atoms: C_27  and  N_10 
ROOT
ATOM      1  N   UNL d   1      32.893  21.978 -21.714  0.00  0.00    -0.264 N 
ATOM      2  C   UNL d   1      33.003  21.658 -20.955  0.00  0.00     0.198 A 
ATOM      3  C   UNL d   1      32.910  21.350 -22.253  0.00  0.00     0.138 A 
ATOM      4  N   UNL d   1      33.085  20.845 -21.035  0.00  0.00    -0.243 NA
ATOM      5  C   UNL d   1      33.029  20.650 -21.834  0.00  0.00     0.105 A 
ATOM      6  C   UNL d   1      32.789  22.765 -21.894  0.00  0.00     0.263 C 
ATOM      7  C   UNL d   1      33.116  21.272 -20.234  0.00  0.00     0.041 A 
ATOM      8  C   UNL d   1      32.911  22.468 -20.975  0.00  0.00     0.041 A 
ATOM      9  S   UNL d   1      32.823  21.414 -23.078  0.00  0.00    -0.058 SA
ATOM     10  N   UNL d   1      33.042  22.531 -19.559  0.00  0.00    -0.303 N 
ATOM     11  O   UNL d   1      32.785  23.333 -21.290  0.00  0.00    -0.267 OA
ATOM     12  C   UNL d   1      32.931  22.905 -20.277  0.00  0.00     0.080 A 
ATOM     13  C   UNL d   1      33.134  21.720 -19.538  0.00  0.00     0.080 A 
ENDROOT
BRANCH   6  14
ATOM     14  C   UNL d   1      32.687  22.999 -22.675  0.00  0.00     0.056 A 
ATOM     15  C   UNL d   1      33.241  22.787 -23.237  0.00  0.00     0.005 A 
ATOM     16  C   UNL d   1      33.142  23.021 -24.022  0.00  0.00     0.000 A 
ATOM     17  C   UNL d   1      32.484  23.469 -24.241  0.00  0.00     0.000 A 
ATOM     18  C   UNL d   1      31.923  23.684 -23.669  0.00  0.00     0.000 A 
ATOM     19  C   UNL d   1      32.386  23.702 -25.029  0.00  0.00     0.000 C 
ATOM     20  C   UNL d   1      32.025  23.449 -22.888  0.00  0.00     0.005 A 
ENDBRANCH   6  14
BRANCH   5  21
ATOM     21  C   UNL d   1      33.082  19.894 -22.153  0.00  0.00     0.020 A 
ATOM     22  C   UNL d   1      33.040  19.790 -22.977  0.00  0.00     0.004 A 
ATOM     23  C   UNL d   1      33.094  19.017 -23.300  0.00  0.00     0.030 A 
ATOM     24  C   UNL d   1      33.188  18.367 -22.793  0.00  0.00     0.140 A 
ATOM     25  C   UNL d   1      33.228  18.477 -21.986  0.00  0.00     0.030 A 
ATOM     26  F   UNL d   1      33.241  17.609 -23.115  0.00  0.00    -0.204 F 
ATOM     27  C   UNL d   1      33.177  19.227 -21.650  0.00  0.00     0.004 A 
ENDBRANCH   5  21
BRANCH  10  28
ATOM     28  C   UNL d   1      33.062  22.972 -18.853  0.00  0.00     0.080 C 
ATOM     29  C   UNL d   1      33.016  22.582 -18.125  0.00  0.00     0.021 C 
ENDBRANCH  10  28
TORSDOF 3
ENDMDL
