MODEL 1
REMARK VINA RESULT:      42.9      0.000      0.000
REMARK  5 active torsions:
REMARK  status: ('A' for Active; 'I' for Inactive)
REMARK    1  A    between atoms: N_6  and  C_1 
REMARK    2  A    between atoms: S_10  and  C_4 
REMARK       I    between atoms: C_7  and  N_6 
REMARK       I    between atoms: N_8  and  C_7 
REMARK    3  A    between atoms: C_11  and  N_8 
REMARK    4  A    between atoms: C_17  and  S_10 
REMARK    5  A    between atoms: C_19  and  C_17 
ROOT
ATOM      1  N   UNL d   1     -49.799  27.332  34.103  0.00  0.00    -0.321 NA
ATOM      2  C   UNL d   1     -50.353  27.052  33.762  0.00  0.00     0.422 C 
ATOM      3  N   UNL d   1     -51.044  26.730  33.334  0.00  0.00    -0.180 NA
ATOM      4  O   UNL d   1     -50.165  26.405  33.951  0.00  0.00    -0.228 OA
ENDROOT
BRANCH   1   5
ATOM      5  C   UNL d   1     -49.182  27.829  34.465  0.00  0.00     0.271 A 
ATOM      6  S   UNL d   1     -48.979  28.506  34.428  0.00  0.00    -0.006 SA
ATOM      7  C   UNL d   1     -48.426  28.721  34.823  0.00  0.00     0.166 A 
ATOM      8  N   UNL d   1     -48.086  28.263  35.244  0.00  0.00    -0.132 NA
ATOM      9  N   UNL d   1     -48.843  27.372  34.886  0.00  0.00    -0.107 NA
BRANCH   7  10
ATOM     10  S   UNL d   1     -48.120  29.375  34.879  0.00  0.00    -0.059 SA
BRANCH  10  11
ATOM     11  C   UNL d   1     -47.805  29.621  35.597  0.00  0.00     0.037 C 
BRANCH  11  12
ATOM     12  C   UNL d   1     -47.203  30.180  35.608  0.00  0.00     0.007 C 
ATOM     13  C   UNL d   1     -47.361  30.957  35.819  0.00  0.00     0.001 C 
ENDBRANCH  11  12
ENDBRANCH  10  11
ENDBRANCH   7  10
ENDBRANCH   1   5
BRANCH   3  14
ATOM     14  C   UNL d   1     -51.175  25.909  33.328  0.00  0.00     0.087 A 
ATOM     15  C   UNL d   1     -51.949  25.621  33.326  0.00  0.00     0.019 A 
ATOM     16  C   UNL d   1     -52.083  24.807  33.321  0.00  0.00     0.002 A 
ATOM     17  C   UNL d   1     -51.434  24.288  33.316  0.00  0.00     0.000 A 
ATOM     18  C   UNL d   1     -50.662  24.582  33.317  0.00  0.00     0.002 A 
ATOM     19  C   UNL d   1     -51.567  23.474  33.310  0.00  0.00     0.000 C 
ATOM     20  C   UNL d   1     -50.532  25.404  33.323  0.00  0.00     0.019 A 
ENDBRANCH   3  14
TORSDOF 5
ENDMDL
