MODEL 1
REMARK VINA RESULT:      -8.2      0.000      0.000
REMARK  8 active torsions:
REMARK  status: ('A' for Active; 'I' for Inactive)
REMARK    1  A    between atoms: N_7  and  N_1 
REMARK    2  A    between atoms: S_9  and  C_2 
REMARK       I    between atoms: C_8  and  N_7 
REMARK    3  A    between atoms: C_21  and  C_8 
REMARK    4  A    between atoms: C_20  and  S_9 
REMARK    5  A    between atoms: C_10  and  C_20 
REMARK       I    between atoms: N_14  and  C_10 
REMARK    6  A    between atoms: C_12  and  C_22 
REMARK    7  A    between atoms: C_22  and  N_14 
REMARK    8  A    between atoms: C_24  and  C_21 
ROOT
ATOM      1  N   UNL d   1      52.664  33.556  53.159  0.00  0.00    -0.168 N 
ATOM      2  C   UNL d   1      52.017  34.055  53.119  0.00  0.00     0.199 A 
ATOM      3  C   UNL d   1      53.313  33.750  53.653  0.00  0.00     0.283 A 
ATOM      4  N   UNL d   1      51.996  34.763  53.572  0.00  0.00    -0.221 NA
ATOM      5  C   UNL d   1      53.286  34.461  54.103  0.00  0.00     0.076 A 
ATOM      6  C   UNL d   1      52.629  34.959  54.057  0.00  0.00     0.088 A 
ATOM      7  O   UNL d   1      53.966  33.247  53.693  0.00  0.00    -0.265 OA
ATOM      8  C   UNL d   1      53.930  34.648  54.590  0.00  0.00     0.006 A 
ATOM      9  C   UNL d   1      52.624  35.653  54.509  0.00  0.00     0.019 A 
ATOM     10  C   UNL d   1      53.908  35.343  55.032  0.00  0.00     0.000 A 
ATOM     11  C   UNL d   1      53.254  35.846  54.992  0.00  0.00     0.002 A 
ENDROOT
BRANCH   2  12
ATOM     12  S   UNL d   1      51.389  33.872  52.644  0.00  0.00    -0.043 SA
BRANCH  12  13
ATOM     13  C   UNL d   1      50.667  34.255  52.743  0.00  0.00     0.101 C 
BRANCH  13  14
ATOM     14  C   UNL d   1      50.149  34.329  52.106  0.00  0.00     0.286 C 
ATOM     15  N   UNL d   1      49.415  34.684  52.211  0.00  0.00    -0.204 NA
ATOM     16  O   UNL d   1      50.367  34.046  51.357  0.00  0.00    -0.265 OA
BRANCH  15  17
ATOM     17  C   UNL d   1      48.901  34.755  51.568  0.00  0.00     0.127 C 
BRANCH  17  18
ATOM     18  C   UNL d   1      48.193  35.182  51.663  0.00  0.00     0.119 A 
ATOM     19  O   UNL d   1      48.017  35.697  52.274  0.00  0.00    -0.304 OA
ATOM     20  C   UNL d   1      47.257  35.996  52.147  0.00  0.00     0.123 A 
ATOM     21  C   UNL d   1      46.963  35.662  51.449  0.00  0.00     0.029 A 
ATOM     22  C   UNL d   1      47.546  35.155  51.148  0.00  0.00     0.028 A 
ENDBRANCH  17  18
ENDBRANCH  15  17
ENDBRANCH  13  14
ENDBRANCH  12  13
ENDBRANCH   2  12
BRANCH   1  23
ATOM     23  N   UNL d   1      52.687  32.873  52.724  0.00  0.00    -0.119 NA
ATOM     24  C   UNL d   1      52.601  32.139  53.101  0.00  0.00     0.296 C 
ATOM     25  O   UNL d   1      52.493  32.110  53.918  0.00  0.00    -0.264 OA
BRANCH  24  26
ATOM     26  C   UNL d   1      52.624  31.443  52.659  0.00  0.00     0.064 C 
BRANCH  26  27
ATOM     27  C   UNL d   1      52.792  30.732  53.030  0.00  0.00     0.005 A 
ATOM     28  C   UNL d   1      52.175  30.271  53.303  0.00  0.00     0.000 A 
ATOM     29  C   UNL d   1      52.344  29.554  53.677  0.00  0.00     0.000 A 
ATOM     30  C   UNL d   1      53.121  29.312  53.771  0.00  0.00     0.000 A 
ATOM     31  C   UNL d   1      53.730  29.787  53.490  0.00  0.00     0.000 A 
ATOM     32  C   UNL d   1      53.564  30.490  53.124  0.00  0.00     0.000 A 
ENDBRANCH  26  27
ENDBRANCH  24  26
ENDBRANCH   1  23
TORSDOF 8
ENDMDL
MODEL 2
REMARK VINA RESULT:      -7.2      1.271      5.156
REMARK  8 active torsions:
REMARK  status: ('A' for Active; 'I' for Inactive)
REMARK    1  A    between atoms: N_7  and  N_1 
REMARK    2  A    between atoms: S_9  and  C_2 
REMARK       I    between atoms: C_8  and  N_7 
REMARK    3  A    between atoms: C_21  and  C_8 
REMARK    4  A    between atoms: C_20  and  S_9 
REMARK    5  A    between atoms: C_10  and  C_20 
REMARK       I    between atoms: N_14  and  C_10 
REMARK    6  A    between atoms: C_12  and  C_22 
REMARK    7  A    between atoms: C_22  and  N_14 
REMARK    8  A    between atoms: C_24  and  C_21 
ROOT
ATOM      1  N   UNL d   1      52.250  33.957  53.036  0.00  0.00    -0.168 N 
ATOM      2  C   UNL d   1      52.614  33.295  53.349  0.00  0.00     0.199 A 
ATOM      3  C   UNL d   1      52.379  34.709  53.380  0.00  0.00     0.283 A 
ATOM      4  N   UNL d   1      53.119  33.363  54.018  0.00  0.00    -0.221 NA
ATOM      5  C   UNL d   1      52.887  34.771  54.050  0.00  0.00     0.076 A 
ATOM      6  C   UNL d   1      53.250  34.097  54.360  0.00  0.00     0.088 A 
ATOM      7  O   UNL d   1      52.012  35.377  53.063  0.00  0.00    -0.265 OA
ATOM      8  C   UNL d   1      53.011  35.517  54.387  0.00  0.00     0.006 A 
ATOM      9  C   UNL d   1      53.745  34.181  55.019  0.00  0.00     0.019 A 
ATOM     10  C   UNL d   1      53.507  35.582  55.042  0.00  0.00     0.000 A 
ATOM     11  C   UNL d   1      53.874  34.914  55.359  0.00  0.00     0.002 A 
ENDROOT
BRANCH   2  12
ATOM     12  S   UNL d   1      52.492  32.566  53.020  0.00  0.00    -0.043 SA
BRANCH  12  13
ATOM     13  C   UNL d   1      53.099  32.010  53.004  0.00  0.00     0.101 C 
BRANCH  13  14
ATOM     14  C   UNL d   1      52.921  31.208  52.932  0.00  0.00     0.286 C 
ATOM     15  N   UNL d   1      53.126  30.686  53.533  0.00  0.00    -0.204 NA
ATOM     16  O   UNL d   1      52.536  30.927  52.253  0.00  0.00    -0.265 OA
BRANCH  15  17
ATOM     17  C   UNL d   1      52.945  29.883  53.454  0.00  0.00     0.127 C 
BRANCH  17  18
ATOM     18  C   UNL d   1      53.140  29.362  54.072  0.00  0.00     0.119 A 
ATOM     19  O   UNL d   1      52.781  29.328  54.807  0.00  0.00    -0.304 OA
ATOM     20  C   UNL d   1      53.149  28.732  55.245  0.00  0.00     0.123 A 
ATOM     21  C   UNL d   1      53.742  28.396  54.775  0.00  0.00     0.029 A 
ATOM     22  C   UNL d   1      53.736  28.789  54.044  0.00  0.00     0.028 A 
ENDBRANCH  17  18
ENDBRANCH  15  17
ENDBRANCH  13  14
ENDBRANCH  12  13
ENDBRANCH   2  12
BRANCH   1  23
ATOM     23  N   UNL d   1      51.763  33.894  52.391  0.00  0.00    -0.119 NA
ATOM     24  C   UNL d   1      50.939  33.909  52.492  0.00  0.00     0.296 C 
ATOM     25  O   UNL d   1      50.622  33.989  53.248  0.00  0.00    -0.264 OA
BRANCH  24  26
ATOM     26  C   UNL d   1      50.442  33.845  51.836  0.00  0.00     0.064 C 
BRANCH  26  27
ATOM     27  C   UNL d   1      49.748  34.278  51.810  0.00  0.00     0.005 A 
ATOM     28  C   UNL d   1      49.370  34.382  51.092  0.00  0.00     0.000 A 
ATOM     29  C   UNL d   1      48.670  34.819  51.065  0.00  0.00     0.000 A 
ATOM     30  C   UNL d   1      48.360  35.142  51.751  0.00  0.00     0.000 A 
ATOM     31  C   UNL d   1      48.752  35.029  52.465  0.00  0.00     0.000 A 
ATOM     32  C   UNL d   1      49.438  34.601  52.491  0.00  0.00     0.000 A 
ENDBRANCH  26  27
ENDBRANCH  24  26
ENDBRANCH   1  23
TORSDOF 8
ENDMDL
MODEL 3
REMARK VINA RESULT:      -7.2      1.092      3.692
REMARK  8 active torsions:
REMARK  status: ('A' for Active; 'I' for Inactive)
REMARK    1  A    between atoms: N_7  and  N_1 
REMARK    2  A    between atoms: S_9  and  C_2 
REMARK       I    between atoms: C_8  and  N_7 
REMARK    3  A    between atoms: C_21  and  C_8 
REMARK    4  A    between atoms: C_20  and  S_9 
REMARK    5  A    between atoms: C_10  and  C_20 
REMARK       I    between atoms: N_14  and  C_10 
REMARK    6  A    between atoms: C_12  and  C_22 
REMARK    7  A    between atoms: C_22  and  N_14 
REMARK    8  A    between atoms: C_24  and  C_21 
ROOT
ATOM      1  N   UNL d   1      53.351  32.328  53.331  0.00  0.00    -0.168 N 
ATOM      2  C   UNL d   1      52.618  32.282  52.972  0.00  0.00     0.199 A 
ATOM      3  C   UNL d   1      53.732  31.632  53.598  0.00  0.00     0.283 A 
ATOM      4  N   UNL d   1      52.240  31.538  52.869  0.00  0.00    -0.221 NA
ATOM      5  C   UNL d   1      53.348  30.889  53.493  0.00  0.00     0.076 A 
ATOM      6  C   UNL d   1      52.607  30.852  53.129  0.00  0.00     0.088 A 
ATOM      7  O   UNL d   1      54.472  31.679  53.961  0.00  0.00    -0.265 OA
ATOM      8  C   UNL d   1      53.728  30.204  53.759  0.00  0.00     0.006 A 
ATOM      9  C   UNL d   1      52.249  30.111  53.035  0.00  0.00     0.019 A 
ATOM     10  C   UNL d   1      53.357  29.475  53.658  0.00  0.00     0.000 A 
ATOM     11  C   UNL d   1      52.616  29.428  53.295  0.00  0.00     0.002 A 
ENDROOT
BRANCH   2  12
ATOM     12  S   UNL d   1      52.247  32.951  52.712  0.00  0.00    -0.043 SA
BRANCH  12  13
ATOM     13  C   UNL d   1      51.430  32.961  52.607  0.00  0.00     0.101 C 
BRANCH  13  14
ATOM     14  C   UNL d   1      51.065  33.621  52.273  0.00  0.00     0.286 C 
ATOM     15  N   UNL d   1      50.431  33.978  52.656  0.00  0.00    -0.204 NA
ATOM     16  O   UNL d   1      51.335  33.924  51.550  0.00  0.00    -0.265 OA
BRANCH  15  17
ATOM     17  C   UNL d   1      50.070  34.638  52.315  0.00  0.00     0.127 C 
BRANCH  17  18
ATOM     18  C   UNL d   1      49.474  35.036  52.739  0.00  0.00     0.119 A 
ATOM     19  O   UNL d   1      49.538  35.334  53.499  0.00  0.00    -0.304 OA
ATOM     20  C   UNL d   1      48.816  35.683  53.698  0.00  0.00     0.123 A 
ATOM     21  C   UNL d   1      48.302  35.598  53.055  0.00  0.00     0.029 A 
ATOM     22  C   UNL d   1      48.712  35.195  52.457  0.00  0.00     0.028 A 
ENDBRANCH  17  18
ENDBRANCH  15  17
ENDBRANCH  13  14
ENDBRANCH  12  13
ENDBRANCH   2  12
BRANCH   1  23
ATOM     23  N   UNL d   1      53.718  33.044  53.431  0.00  0.00    -0.119 NA
ATOM     24  C   UNL d   1      53.783  33.374  54.190  0.00  0.00     0.296 C 
ATOM     25  O   UNL d   1      53.473  32.969  54.838  0.00  0.00    -0.264 OA
BRANCH  24  26
ATOM     26  C   UNL d   1      54.155  34.102  54.292  0.00  0.00     0.064 C 
BRANCH  26  27
ATOM     27  C   UNL d   1      53.712  34.759  54.499  0.00  0.00     0.005 A 
ATOM     28  C   UNL d   1      53.638  35.373  53.964  0.00  0.00     0.000 A 
ATOM     29  C   UNL d   1      53.191  36.036  54.172  0.00  0.00     0.000 A 
ATOM     30  C   UNL d   1      52.828  36.074  54.905  0.00  0.00     0.000 A 
ATOM     31  C   UNL d   1      52.912  35.448  55.431  0.00  0.00     0.000 A 
ATOM     32  C   UNL d   1      53.350  34.799  55.228  0.00  0.00     0.000 A 
ENDBRANCH  26  27
ENDBRANCH  24  26
ENDBRANCH   1  23
TORSDOF 8
ENDMDL
MODEL 4
REMARK VINA RESULT:      -6.9      1.470      5.045
REMARK  8 active torsions:
REMARK  status: ('A' for Active; 'I' for Inactive)
REMARK    1  A    between atoms: N_7  and  N_1 
REMARK    2  A    between atoms: S_9  and  C_2 
REMARK       I    between atoms: C_8  and  N_7 
REMARK    3  A    between atoms: C_21  and  C_8 
REMARK    4  A    between atoms: C_20  and  S_9 
REMARK    5  A    between atoms: C_10  and  C_20 
REMARK       I    between atoms: N_14  and  C_10 
REMARK    6  A    between atoms: C_12  and  C_22 
REMARK    7  A    between atoms: C_22  and  N_14 
REMARK    8  A    between atoms: C_24  and  C_21 
ROOT
ATOM      1  N   UNL d   1      51.487  33.916  53.529  0.00  0.00    -0.168 N 
ATOM      2  C   UNL d   1      51.563  33.315  52.980  0.00  0.00     0.199 A 
ATOM      3  C   UNL d   1      50.904  34.508  53.424  0.00  0.00     0.283 A 
ATOM      4  N   UNL d   1      51.058  33.285  52.308  0.00  0.00    -0.221 NA
ATOM      5  C   UNL d   1      50.401  34.473  52.749  0.00  0.00     0.076 A 
ATOM      6  C   UNL d   1      50.485  33.862  52.199  0.00  0.00     0.088 A 
ATOM      7  O   UNL d   1      50.827  35.116  53.978  0.00  0.00    -0.265 OA
ATOM      8  C   UNL d   1      49.827  35.061  52.650  0.00  0.00     0.006 A 
ATOM      9  C   UNL d   1      49.980  33.847  51.542  0.00  0.00     0.019 A 
ATOM     10  C   UNL d   1      49.333  35.030  51.990  0.00  0.00     0.000 A 
ATOM     11  C   UNL d   1      49.410  34.423  51.436  0.00  0.00     0.002 A 
ENDROOT
BRANCH   2  12
ATOM     12  S   UNL d   1      52.124  32.741  53.077  0.00  0.00    -0.043 SA
BRANCH  12  13
ATOM     13  C   UNL d   1      51.969  31.965  52.851  0.00  0.00     0.101 C 
BRANCH  13  14
ATOM     14  C   UNL d   1      52.579  31.410  52.838  0.00  0.00     0.286 C 
ATOM     15  N   UNL d   1      52.583  30.790  53.378  0.00  0.00    -0.204 NA
ATOM     16  O   UNL d   1      53.189  31.475  52.280  0.00  0.00    -0.265 OA
BRANCH  15  17
ATOM     17  C   UNL d   1      53.197  30.238  53.359  0.00  0.00     0.127 C 
BRANCH  17  18
ATOM     18  C   UNL d   1      53.239  29.660  53.956  0.00  0.00     0.119 A 
ATOM     19  O   UNL d   1      53.201  28.849  53.848  0.00  0.00    -0.304 OA
ATOM     20  C   UNL d   1      53.264  28.488  54.588  0.00  0.00     0.123 A 
ATOM     21  C   UNL d   1      53.342  29.083  55.159  0.00  0.00     0.029 A 
ATOM     22  C   UNL d   1      53.326  29.813  54.765  0.00  0.00     0.028 A 
ENDBRANCH  17  18
ENDBRANCH  15  17
ENDBRANCH  13  14
ENDBRANCH  12  13
ENDBRANCH   2  12
BRANCH   1  23
ATOM     23  N   UNL d   1      51.971  33.947  54.178  0.00  0.00    -0.119 NA
ATOM     24  C   UNL d   1      52.613  34.473  54.191  0.00  0.00     0.296 C 
ATOM     25  O   UNL d   1      52.753  34.961  53.542  0.00  0.00    -0.264 OA
BRANCH  24  26
ATOM     26  C   UNL d   1      53.107  34.505  54.851  0.00  0.00     0.064 C 
BRANCH  26  27
ATOM     27  C   UNL d   1      53.852  34.167  54.817  0.00  0.00     0.005 A 
ATOM     28  C   UNL d   1      54.036  33.558  55.331  0.00  0.00     0.000 A 
ATOM     29  C   UNL d   1      54.788  33.218  55.297  0.00  0.00     0.000 A 
ATOM     30  C   UNL d   1      55.338  33.489  54.754  0.00  0.00     0.000 A 
ATOM     31  C   UNL d   1      55.137  34.102  54.244  0.00  0.00     0.000 A 
ATOM     32  C   UNL d   1      54.401  34.435  54.278  0.00  0.00     0.000 A 
ENDBRANCH  26  27
ENDBRANCH  24  26
ENDBRANCH   1  23
TORSDOF 8
ENDMDL
MODEL 5
REMARK VINA RESULT:      -6.6      1.928      4.947
REMARK  8 active torsions:
REMARK  status: ('A' for Active; 'I' for Inactive)
REMARK    1  A    between atoms: N_7  and  N_1 
REMARK    2  A    between atoms: S_9  and  C_2 
REMARK       I    between atoms: C_8  and  N_7 
REMARK    3  A    between atoms: C_21  and  C_8 
REMARK    4  A    between atoms: C_20  and  S_9 
REMARK    5  A    between atoms: C_10  and  C_20 
REMARK       I    between atoms: N_14  and  C_10 
REMARK    6  A    between atoms: C_12  and  C_22 
REMARK    7  A    between atoms: C_22  and  N_14 
REMARK    8  A    between atoms: C_24  and  C_21 
ROOT
ATOM      1  N   UNL d   1      53.099  31.772  53.095  0.00  0.00    -0.168 N 
ATOM      2  C   UNL d   1      53.561  31.823  53.768  0.00  0.00     0.199 A 
ATOM      3  C   UNL d   1      52.791  31.032  52.852  0.00  0.00     0.283 A 
ATOM      4  N   UNL d   1      53.732  31.134  54.220  0.00  0.00    -0.221 NA
ATOM      5  C   UNL d   1      52.966  30.346  53.309  0.00  0.00     0.076 A 
ATOM      6  C   UNL d   1      53.434  30.406  53.987  0.00  0.00     0.088 A 
ATOM      7  O   UNL d   1      52.324  30.982  52.173  0.00  0.00    -0.265 OA
ATOM      8  C   UNL d   1      52.659  29.617  53.065  0.00  0.00     0.006 A 
ATOM      9  C   UNL d   1      53.593  29.719  54.421  0.00  0.00     0.019 A 
ATOM     10  C   UNL d   1      52.827  28.943  53.509  0.00  0.00     0.000 A 
ATOM     11  C   UNL d   1      53.295  28.994  54.188  0.00  0.00     0.002 A 
ENDROOT
BRANCH   2  12
ATOM     12  S   UNL d   1      53.860  32.535  54.006  0.00  0.00    -0.043 SA
BRANCH  12  13
ATOM     13  C   UNL d   1      54.232  32.606  54.737  0.00  0.00     0.101 C 
BRANCH  13  14
ATOM     14  C   UNL d   1      54.444  33.351  55.021  0.00  0.00     0.286 C 
ATOM     15  N   UNL d   1      53.914  33.978  54.968  0.00  0.00    -0.204 NA
ATOM     16  O   UNL d   1      55.191  33.470  55.361  0.00  0.00    -0.265 OA
BRANCH  15  17
ATOM     17  C   UNL d   1      54.132  34.721  55.255  0.00  0.00     0.127 C 
BRANCH  17  18
ATOM     18  C   UNL d   1      53.644  35.375  55.095  0.00  0.00     0.119 A 
ATOM     19  O   UNL d   1      53.009  35.628  55.547  0.00  0.00    -0.304 OA
ATOM     20  C   UNL d   1      52.685  36.295  55.183  0.00  0.00     0.123 A 
ATOM     21  C   UNL d   1      53.124  36.454  54.500  0.00  0.00     0.029 A 
ATOM     22  C   UNL d   1      53.721  35.882  54.445  0.00  0.00     0.028 A 
ENDBRANCH  17  18
ENDBRANCH  15  17
ENDBRANCH  13  14
ENDBRANCH  12  13
ENDBRANCH   2  12
BRANCH   1  23
ATOM     23  N   UNL d   1      52.933  32.434  52.658  0.00  0.00    -0.119 NA
ATOM     24  C   UNL d   1      52.185  32.789  52.711  0.00  0.00     0.296 C 
ATOM     25  O   UNL d   1      51.614  32.465  53.209  0.00  0.00    -0.264 OA
BRANCH  24  26
ATOM     26  C   UNL d   1      52.015  33.462  52.265  0.00  0.00     0.064 C 
BRANCH  26  27
ATOM     27  C   UNL d   1      51.280  33.818  52.332  0.00  0.00     0.005 A 
ATOM     28  C   UNL d   1      50.837  33.946  51.657  0.00  0.00     0.000 A 
ATOM     29  C   UNL d   1      50.096  34.305  51.724  0.00  0.00     0.000 A 
ATOM     30  C   UNL d   1      49.813  34.529  52.460  0.00  0.00     0.000 A 
ATOM     31  C   UNL d   1      50.271  34.394  53.129  0.00  0.00     0.000 A 
ATOM     32  C   UNL d   1      50.997  34.042  53.063  0.00  0.00     0.000 A 
ENDBRANCH  26  27
ENDBRANCH  24  26
ENDBRANCH   1  23
TORSDOF 8
ENDMDL
MODEL 6
REMARK VINA RESULT:      -5.6      1.265      4.473
REMARK  8 active torsions:
REMARK  status: ('A' for Active; 'I' for Inactive)
REMARK    1  A    between atoms: N_7  and  N_1 
REMARK    2  A    between atoms: S_9  and  C_2 
REMARK       I    between atoms: C_8  and  N_7 
REMARK    3  A    between atoms: C_21  and  C_8 
REMARK    4  A    between atoms: C_20  and  S_9 
REMARK    5  A    between atoms: C_10  and  C_20 
REMARK       I    between atoms: N_14  and  C_10 
REMARK    6  A    between atoms: C_12  and  C_22 
REMARK    7  A    between atoms: C_22  and  N_14 
REMARK    8  A    between atoms: C_24  and  C_21 
ROOT
ATOM      1  N   UNL d   1      51.466  33.971  52.598  0.00  0.00    -0.168 N 
ATOM      2  C   UNL d   1      51.393  34.484  53.231  0.00  0.00     0.199 A 
ATOM      3  C   UNL d   1      50.829  33.873  52.063  0.00  0.00     0.283 A 
ATOM      4  N   UNL d   1      50.681  34.915  53.350  0.00  0.00    -0.221 NA
ATOM      5  C   UNL d   1      50.119  34.308  52.187  0.00  0.00     0.076 A 
ATOM      6  C   UNL d   1      50.054  34.823  52.829  0.00  0.00     0.088 A 
ATOM      7  O   UNL d   1      50.903  33.355  51.424  0.00  0.00    -0.265 OA
ATOM      8  C   UNL d   1      49.493  34.207  51.655  0.00  0.00     0.006 A 
ATOM      9  C   UNL d   1      49.346  35.241  52.932  0.00  0.00     0.019 A 
ATOM     10  C   UNL d   1      48.795  34.631  51.772  0.00  0.00     0.000 A 
ATOM     11  C   UNL d   1      48.722  35.149  52.412  0.00  0.00     0.002 A 
ENDROOT
BRANCH   2  12
ATOM     12  S   UNL d   1      52.004  34.582  53.750  0.00  0.00    -0.043 SA
BRANCH  12  13
ATOM     13  C   UNL d   1      52.052  35.260  54.214  0.00  0.00     0.101 C 
BRANCH  13  14
ATOM     14  C   UNL d   1      52.754  35.445  54.605  0.00  0.00     0.286 C 
ATOM     15  N   UNL d   1      53.260  34.845  54.850  0.00  0.00    -0.204 NA
ATOM     16  O   UNL d   1      52.953  36.237  54.751  0.00  0.00    -0.265 OA
BRANCH  15  17
ATOM     17  C   UNL d   1      53.962  35.038  55.240  0.00  0.00     0.127 C 
BRANCH  17  18
ATOM     18  C   UNL d   1      54.570  34.471  55.281  0.00  0.00     0.119 A 
ATOM     19  O   UNL d   1      55.258  34.468  54.836  0.00  0.00    -0.304 OA
ATOM     20  C   UNL d   1      55.702  33.807  55.056  0.00  0.00     0.123 A 
ATOM     21  C   UNL d   1      55.283  33.399  55.642  0.00  0.00     0.029 A 
ATOM     22  C   UNL d   1      54.578  33.813  55.782  0.00  0.00     0.028 A 
ENDBRANCH  17  18
ENDBRANCH  15  17
ENDBRANCH  13  14
ENDBRANCH  12  13
ENDBRANCH   2  12
BRANCH   1  23
ATOM     23  N   UNL d   1      52.151  33.554  52.481  0.00  0.00    -0.119 NA
ATOM     24  C   UNL d   1      52.211  32.772  52.751  0.00  0.00     0.296 C 
ATOM     25  O   UNL d   1      51.572  32.423  53.138  0.00  0.00    -0.264 OA
BRANCH  24  26
ATOM     26  C   UNL d   1      52.907  32.346  52.633  0.00  0.00     0.064 C 
BRANCH  26  27
ATOM     27  C   UNL d   1      52.982  31.593  52.947  0.00  0.00     0.005 A 
ATOM     28  C   UNL d   1      53.449  31.483  53.609  0.00  0.00     0.000 A 
ATOM     29  C   UNL d   1      53.524  30.724  53.925  0.00  0.00     0.000 A 
ATOM     30  C   UNL d   1      53.134  30.093  53.577  0.00  0.00     0.000 A 
ATOM     31  C   UNL d   1      52.669  30.220  52.912  0.00  0.00     0.000 A 
ATOM     32  C   UNL d   1      52.595  30.964  52.602  0.00  0.00     0.000 A 
ENDBRANCH  26  27
ENDBRANCH  24  26
ENDBRANCH   1  23
TORSDOF 8
ENDMDL
