MODEL 1
REMARK VINA RESULT:      -8.3      0.000      0.000
REMARK  5 active torsions:
REMARK  status: ('A' for Active; 'I' for Inactive)
REMARK    1  A    between atoms: N_2  and  S_1 
REMARK    2  A    between atoms: C_7  and  S_1 
REMARK    3  A    between atoms: C_3  and  N_2 
REMARK    4  A    between atoms: N_6  and  C_8 
REMARK    5  A    between atoms: C_9  and  N_6 
ROOT
ATOM      1  C   UNL d   1      52.265  33.232  53.213  0.00  0.00     0.111 A 
ATOM      2  C   UNL d   1      53.048  33.135  53.447  0.00  0.00     0.100 A 
ATOM      3  C   UNL d   1      51.857  32.575  52.921  0.00  0.00     0.021 A 
ATOM      4  C   UNL d   1      53.416  32.403  53.392  0.00  0.00     0.021 A 
ATOM      5  C   UNL d   1      52.225  31.843  52.866  0.00  0.00     0.002 A 
ATOM      6  C   UNL d   1      53.010  31.751  53.102  0.00  0.00     0.002 A 
ENDROOT
BRANCH   1   7
ATOM      7  N   UNL d   1      51.897  33.962  53.268  0.00  0.00    -0.157 NA
BRANCH   7   8
ATOM      8  S   UNL d   1      51.212  34.116  52.838  0.00  0.00     0.285 S 
ATOM      9  O   UNL d   1      50.755  33.800  53.449  0.00  0.00    -0.198 OA
ATOM     10  O   UNL d   1      51.680  34.437  52.215  0.00  0.00    -0.198 OA
BRANCH   8  11
ATOM     11  C   UNL d   1      50.513  34.273  52.395  0.00  0.00     0.105 A 
ATOM     12  C   UNL d   1      50.512  34.179  51.562  0.00  0.00     0.013 A 
ATOM     13  C   UNL d   1      49.827  34.335  51.138  0.00  0.00     0.001 A 
ATOM     14  C   UNL d   1      49.146  34.581  51.516  0.00  0.00     0.000 A 
ATOM     15  C   UNL d   1      49.146  34.675  52.350  0.00  0.00     0.001 A 
ATOM     16  C   UNL d   1      49.827  34.523  52.792  0.00  0.00     0.013 A 
ENDBRANCH   8  11
ENDBRANCH   7   8
ENDBRANCH   1   7
BRANCH   2  17
ATOM     17  N   UNL d   1      53.465  33.813  53.748  0.00  0.00    -0.244 NA
BRANCH  17  18
ATOM     18  C   UNL d   1      54.058  33.728  54.309  0.00  0.00     0.081 A 
ATOM     19  C   UNL d   1      54.832  33.748  54.073  0.00  0.00     0.019 A 
ATOM     20  C   UNL d   1      55.444  33.665  54.621  0.00  0.00     0.002 A 
ATOM     21  C   UNL d   1      55.267  33.560  55.424  0.00  0.00     0.000 A 
ATOM     22  C   UNL d   1      54.480  33.540  55.663  0.00  0.00     0.002 A 
ATOM     23  C   UNL d   1      53.869  33.624  55.110  0.00  0.00     0.019 A 
ENDBRANCH  17  18
ENDBRANCH   2  17
TORSDOF 5
ENDMDL
MODEL 2
REMARK VINA RESULT:      -8.0      2.292      4.609
REMARK  5 active torsions:
REMARK  status: ('A' for Active; 'I' for Inactive)
REMARK    1  A    between atoms: N_2  and  S_1 
REMARK    2  A    between atoms: C_7  and  S_1 
REMARK    3  A    between atoms: C_3  and  N_2 
REMARK    4  A    between atoms: N_6  and  C_8 
REMARK    5  A    between atoms: C_9  and  N_6 
ROOT
ATOM      1  C   UNL d   1      53.355  32.045  53.495  0.00  0.00     0.111 A 
ATOM      2  C   UNL d   1      52.965  32.744  53.302  0.00  0.00     0.100 A 
ATOM      3  C   UNL d   1      53.975  32.077  54.040  0.00  0.00     0.021 A 
ATOM      4  C   UNL d   1      53.187  33.457  53.642  0.00  0.00     0.021 A 
ATOM      5  C   UNL d   1      54.197  32.791  54.381  0.00  0.00     0.002 A 
ATOM      6  C   UNL d   1      53.803  33.488  54.184  0.00  0.00     0.002 A 
ENDROOT
BRANCH   1   7
ATOM      7  N   UNL d   1      53.133  31.332  53.155  0.00  0.00    -0.157 NA
BRANCH   7   8
ATOM      8  S   UNL d   1      53.226  30.628  53.570  0.00  0.00     0.285 S 
ATOM      9  O   UNL d   1      54.027  30.613  53.369  0.00  0.00    -0.198 OA
ATOM     10  O   UNL d   1      52.408  30.645  53.774  0.00  0.00    -0.198 OA
BRANCH   8  11
ATOM     11  C   UNL d   1      53.318  29.907  53.996  0.00  0.00     0.105 A 
ATOM     12  C   UNL d   1      52.980  29.823  54.759  0.00  0.00     0.013 A 
ATOM     13  C   UNL d   1      53.074  29.117  55.166  0.00  0.00     0.001 A 
ATOM     14  C   UNL d   1      53.492  28.496  54.840  0.00  0.00     0.000 A 
ATOM     15  C   UNL d   1      53.830  28.579  54.077  0.00  0.00     0.001 A 
ATOM     16  C   UNL d   1      53.745  29.283  53.653  0.00  0.00     0.013 A 
ENDBRANCH   8  11
ENDBRANCH   7   8
ENDBRANCH   1   7
BRANCH   2  17
ATOM     17  N   UNL d   1      52.326  32.708  52.740  0.00  0.00    -0.244 NA
BRANCH  17  18
ATOM     18  C   UNL d   1      51.751  33.293  52.717  0.00  0.00     0.081 A 
ATOM     19  C   UNL d   1      51.811  33.884  52.168  0.00  0.00     0.019 A 
ATOM     20  C   UNL d   1      51.244  34.482  52.127  0.00  0.00     0.002 A 
ATOM     21  C   UNL d   1      50.603  34.481  52.654  0.00  0.00     0.000 A 
ATOM     22  C   UNL d   1      50.544  33.879  53.212  0.00  0.00     0.002 A 
ATOM     23  C   UNL d   1      51.115  33.280  53.250  0.00  0.00     0.019 A 
ENDBRANCH  17  18
ENDBRANCH   2  17
TORSDOF 5
ENDMDL
MODEL 3
REMARK VINA RESULT:      -7.6      1.120      2.407
REMARK  5 active torsions:
REMARK  status: ('A' for Active; 'I' for Inactive)
REMARK    1  A    between atoms: N_2  and  S_1 
REMARK    2  A    between atoms: C_7  and  S_1 
REMARK    3  A    between atoms: C_3  and  N_2 
REMARK    4  A    between atoms: N_6  and  C_8 
REMARK    5  A    between atoms: C_9  and  N_6 
ROOT
ATOM      1  C   UNL d   1      52.403  33.146  53.155  0.00  0.00     0.111 A 
ATOM      2  C   UNL d   1      52.930  32.526  53.282  0.00  0.00     0.100 A 
ATOM      3  C   UNL d   1      52.463  33.819  53.631  0.00  0.00     0.021 A 
ATOM      4  C   UNL d   1      53.502  32.575  53.869  0.00  0.00     0.021 A 
ATOM      5  C   UNL d   1      53.035  33.867  54.218  0.00  0.00     0.002 A 
ATOM      6  C   UNL d   1      53.561  33.244  54.342  0.00  0.00     0.002 A 
ENDROOT
BRANCH   1   7
ATOM      7  N   UNL d   1      51.832  33.097  52.569  0.00  0.00    -0.157 NA
BRANCH   7   8
ATOM      8  S   UNL d   1      51.182  33.603  52.579  0.00  0.00     0.285 S 
ATOM      9  O   UNL d   1      50.822  33.132  53.153  0.00  0.00    -0.198 OA
ATOM     10  O   UNL d   1      51.552  34.082  51.993  0.00  0.00    -0.198 OA
BRANCH   8  11
ATOM     11  C   UNL d   1      50.520  34.123  52.588  0.00  0.00     0.105 A 
ATOM     12  C   UNL d   1      50.283  34.491  53.304  0.00  0.00     0.013 A 
ATOM     13  C   UNL d   1      49.636  34.996  53.303  0.00  0.00     0.001 A 
ATOM     14  C   UNL d   1      49.220  35.145  52.616  0.00  0.00     0.000 A 
ATOM     15  C   UNL d   1      49.457  34.777  51.900  0.00  0.00     0.001 A 
ATOM     16  C   UNL d   1      50.105  34.266  51.883  0.00  0.00     0.013 A 
ENDBRANCH   8  11
ENDBRANCH   7   8
ENDBRANCH   1   7
BRANCH   2  17
ATOM     17  N   UNL d   1      52.866  31.835  52.791  0.00  0.00    -0.244 NA
BRANCH  17  18
ATOM     18  C   UNL d   1      53.030  31.088  53.090  0.00  0.00     0.081 A 
ATOM     19  C   UNL d   1      52.417  30.583  53.250  0.00  0.00     0.019 A 
ATOM     20  C   UNL d   1      52.559  29.828  53.551  0.00  0.00     0.002 A 
ATOM     21  C   UNL d   1      53.337  29.579  53.693  0.00  0.00     0.000 A 
ATOM     22  C   UNL d   1      53.959  30.094  53.530  0.00  0.00     0.002 A 
ATOM     23  C   UNL d   1      53.812  30.851  53.228  0.00  0.00     0.019 A 
ENDBRANCH  17  18
ENDBRANCH   2  17
TORSDOF 5
ENDMDL
MODEL 4
REMARK VINA RESULT:      -7.5      1.977      3.677
REMARK  5 active torsions:
REMARK  status: ('A' for Active; 'I' for Inactive)
REMARK    1  A    between atoms: N_2  and  S_1 
REMARK    2  A    between atoms: C_7  and  S_1 
REMARK    3  A    between atoms: C_3  and  N_2 
REMARK    4  A    between atoms: N_6  and  C_8 
REMARK    5  A    between atoms: C_9  and  N_6 
ROOT
ATOM      1  C   UNL d   1      52.378  32.659  53.132  0.00  0.00     0.111 A 
ATOM      2  C   UNL d   1      52.386  33.453  53.353  0.00  0.00     0.100 A 
ATOM      3  C   UNL d   1      51.650  32.302  52.972  0.00  0.00     0.021 A 
ATOM      4  C   UNL d   1      51.688  33.880  53.413  0.00  0.00     0.021 A 
ATOM      5  C   UNL d   1      50.951  32.730  53.033  0.00  0.00     0.002 A 
ATOM      6  C   UNL d   1      50.965  33.524  53.254  0.00  0.00     0.002 A 
ENDROOT
BRANCH   1   7
ATOM      7  N   UNL d   1      53.076  32.233  53.071  0.00  0.00    -0.157 NA
BRANCH   7   8
ATOM      8  S   UNL d   1      53.086  31.427  53.243  0.00  0.00     0.285 S 
ATOM      9  O   UNL d   1      52.816  31.260  52.480  0.00  0.00    -0.198 OA
ATOM     10  O   UNL d   1      53.360  31.601  54.020  0.00  0.00    -0.198 OA
BRANCH   8  11
ATOM     11  C   UNL d   1      53.097  30.604  53.421  0.00  0.00     0.105 A 
ATOM     12  C   UNL d   1      53.351  30.341  54.176  0.00  0.00     0.013 A 
ATOM     13  C   UNL d   1      53.359  29.537  54.340  0.00  0.00     0.001 A 
ATOM     14  C   UNL d   1      53.123  28.991  53.781  0.00  0.00     0.000 A 
ATOM     15  C   UNL d   1      52.869  29.254  53.026  0.00  0.00     0.001 A 
ATOM     16  C   UNL d   1      52.855  30.059  52.843  0.00  0.00     0.013 A 
ENDBRANCH   8  11
ENDBRANCH   7   8
ENDBRANCH   1   7
BRANCH   2  17
ATOM     17  N   UNL d   1      53.137  33.817  53.516  0.00  0.00    -0.244 NA
BRANCH  17  18
ATOM     18  C   UNL d   1      53.184  34.502  53.967  0.00  0.00     0.081 A 
ATOM     19  C   UNL d   1      53.160  35.221  53.597  0.00  0.00     0.019 A 
ATOM     20  C   UNL d   1      53.206  35.922  54.031  0.00  0.00     0.002 A 
ATOM     21  C   UNL d   1      53.278  35.892  54.857  0.00  0.00     0.000 A 
ATOM     22  C   UNL d   1      53.302  35.160  55.232  0.00  0.00     0.002 A 
ATOM     23  C   UNL d   1      53.255  34.459  54.793  0.00  0.00     0.019 A 
ENDBRANCH  17  18
ENDBRANCH   2  17
TORSDOF 5
ENDMDL
MODEL 5
REMARK VINA RESULT:      -7.4      1.704      4.421
REMARK  5 active torsions:
REMARK  status: ('A' for Active; 'I' for Inactive)
REMARK    1  A    between atoms: N_2  and  S_1 
REMARK    2  A    between atoms: C_7  and  S_1 
REMARK    3  A    between atoms: C_3  and  N_2 
REMARK    4  A    between atoms: N_6  and  C_8 
REMARK    5  A    between atoms: C_9  and  N_6 
ROOT
ATOM      1  C   UNL d   1      52.101  33.360  52.917  0.00  0.00     0.111 A 
ATOM      2  C   UNL d   1      51.494  33.900  53.051  0.00  0.00     0.100 A 
ATOM      3  C   UNL d   1      52.879  33.598  53.065  0.00  0.00     0.021 A 
ATOM      4  C   UNL d   1      51.656  34.657  53.325  0.00  0.00     0.021 A 
ATOM      5  C   UNL d   1      53.041  34.355  53.339  0.00  0.00     0.002 A 
ATOM      6  C   UNL d   1      52.429  34.891  53.472  0.00  0.00     0.002 A 
ENDROOT
BRANCH   1   7
ATOM      7  N   UNL d   1      51.939  32.605  52.644  0.00  0.00    -0.157 NA
BRANCH   7   8
ATOM      8  S   UNL d   1      52.382  31.963  52.910  0.00  0.00     0.285 S 
ATOM      9  O   UNL d   1      51.889  31.895  53.570  0.00  0.00    -0.198 OA
ATOM     10  O   UNL d   1      52.882  32.035  52.236  0.00  0.00    -0.198 OA
BRANCH   8  11
ATOM     11  C   UNL d   1      52.836  31.307  53.180  0.00  0.00     0.105 A 
ATOM     12  C   UNL d   1      53.545  31.436  53.610  0.00  0.00     0.013 A 
ATOM     13  C   UNL d   1      53.981  30.791  53.869  0.00  0.00     0.001 A 
ATOM     14  C   UNL d   1      53.736  30.027  53.714  0.00  0.00     0.000 A 
ATOM     15  C   UNL d   1      53.028  29.899  53.283  0.00  0.00     0.001 A 
ATOM     16  C   UNL d   1      52.576  30.536  53.015  0.00  0.00     0.013 A 
ENDBRANCH   8  11
ENDBRANCH   7   8
ENDBRANCH   1   7
BRANCH   2  17
ATOM     17  N   UNL d   1      50.694  33.653  52.898  0.00  0.00    -0.244 NA
BRANCH  17  18
ATOM     18  C   UNL d   1      50.124  34.193  52.659  0.00  0.00     0.081 A 
ATOM     19  C   UNL d   1      49.956  34.267  51.871  0.00  0.00     0.019 A 
ATOM     20  C   UNL d   1      49.387  34.804  51.609  0.00  0.00     0.002 A 
ATOM     21  C   UNL d   1      48.980  35.275  52.157  0.00  0.00     0.000 A 
ATOM     22  C   UNL d   1      49.152  35.198  52.958  0.00  0.00     0.002 A 
ATOM     23  C   UNL d   1      49.724  34.658  53.217  0.00  0.00     0.019 A 
ENDBRANCH  17  18
ENDBRANCH   2  17
TORSDOF 5
ENDMDL
MODEL 6
REMARK VINA RESULT:      -6.7      1.058      4.433
REMARK  5 active torsions:
REMARK  status: ('A' for Active; 'I' for Inactive)
REMARK    1  A    between atoms: N_2  and  S_1 
REMARK    2  A    between atoms: C_7  and  S_1 
REMARK    3  A    between atoms: C_3  and  N_2 
REMARK    4  A    between atoms: N_6  and  C_8 
REMARK    5  A    between atoms: C_9  and  N_6 
ROOT
ATOM      1  C   UNL d   1      52.582  33.142  53.167  0.00  0.00     0.111 A 
ATOM      2  C   UNL d   1      51.787  33.254  52.983  0.00  0.00     0.100 A 
ATOM      3  C   UNL d   1      52.866  32.368  53.230  0.00  0.00     0.021 A 
ATOM      4  C   UNL d   1      51.288  32.613  52.863  0.00  0.00     0.021 A 
ATOM      5  C   UNL d   1      52.367  31.727  53.111  0.00  0.00     0.002 A 
ATOM      6  C   UNL d   1      51.572  31.845  52.926  0.00  0.00     0.002 A 
ENDROOT
BRANCH   1   7
ATOM      7  N   UNL d   1      53.080  33.782  53.287  0.00  0.00    -0.157 NA
BRANCH   7   8
ATOM      8  S   UNL d   1      53.668  33.749  53.862  0.00  0.00     0.285 S 
ATOM      9  O   UNL d   1      54.192  33.425  53.312  0.00  0.00    -0.198 OA
ATOM     10  O   UNL d   1      53.131  34.079  54.422  0.00  0.00    -0.198 OA
BRANCH   8  11
ATOM     11  C   UNL d   1      54.267  33.716  54.454  0.00  0.00     0.105 A 
ATOM     12  C   UNL d   1      55.072  33.825  54.243  0.00  0.00     0.013 A 
ATOM     13  C   UNL d   1      55.649  33.792  54.826  0.00  0.00     0.001 A 
ATOM     14  C   UNL d   1      55.451  33.654  55.606  0.00  0.00     0.000 A 
ATOM     15  C   UNL d   1      54.647  33.545  55.816  0.00  0.00     0.001 A 
ATOM     16  C   UNL d   1      54.053  33.575  55.243  0.00  0.00     0.013 A 
ENDBRANCH   8  11
ENDBRANCH   7   8
ENDBRANCH   1   7
BRANCH   2  17
ATOM     17  N   UNL d   1      51.498  34.051  52.919  0.00  0.00    -0.244 NA
BRANCH  17  18
ATOM     18  C   UNL d   1      50.804  34.217  52.512  0.00  0.00     0.081 A 
ATOM     19  C   UNL d   1      50.129  34.375  52.930  0.00  0.00     0.019 A 
ATOM     20  C   UNL d   1      49.421  34.544  52.541  0.00  0.00     0.002 A 
ATOM     21  C   UNL d   1      49.396  34.552  51.713  0.00  0.00     0.000 A 
ATOM     22  C   UNL d   1      50.084  34.391  51.289  0.00  0.00     0.002 A 
ATOM     23  C   UNL d   1      50.792  34.222  51.683  0.00  0.00     0.019 A 
ENDBRANCH  17  18
ENDBRANCH   2  17
TORSDOF 5
ENDMDL
