MODEL 1
REMARK VINA RESULT:      13.4      0.000      0.000
REMARK  5 active torsions:
REMARK  status: ('A' for Active; 'I' for Inactive)
REMARK    1  A    between atoms: C_10  and  C_4 
REMARK       I    between atoms: C_6  and  N_8 
REMARK    2  A    between atoms: C_9  and  C_6 
REMARK    3  A    between atoms: N_8  and  C_13 
REMARK    4  A    between atoms: C_11  and  C_9 
REMARK    5  A    between atoms: C_13  and  C_10 
ROOT
ATOM      1  C   UNL d   1      14.455  11.831  -2.113  0.00  0.00     0.279 C 
ATOM      2  O   UNL d   1      15.038  11.819  -2.699  0.00  0.00    -0.265 OA
ATOM      3  N   UNL d   1      14.669  11.816  -1.324  0.00  0.00    -0.206 NA
ENDROOT
BRANCH   1   4
ATOM      4  C   UNL d   1      13.661  11.857  -2.331  0.00  0.00     0.062 C 
BRANCH   4   5
ATOM      5  C   UNL d   1      13.434  12.207  -3.050  0.00  0.00     0.005 A 
ATOM      6  C   UNL d   1      13.653  12.974  -3.195  0.00  0.00     0.001 A 
ATOM      7  C   UNL d   1      13.431  13.326  -3.906  0.00  0.00     0.011 A 
ATOM      8  C   UNL d   1      12.994  12.910  -4.463  0.00  0.00     0.058 A 
ATOM      9  C   UNL d   1      12.773  12.131  -4.313  0.00  0.00     0.011 A 
ATOM     10 CL   UNL d   1      12.775  13.275  -5.178  0.00  0.00    -0.082 Cl
ATOM     11  C   UNL d   1      12.994  11.779  -3.603  0.00  0.00     0.001 A 
ENDBRANCH   4   5
ENDBRANCH   1   4
BRANCH   3  12
ATOM     12  C   UNL d   1      14.072  11.828  -0.731  0.00  0.00     0.104 C 
BRANCH  12  13
ATOM     13  C   UNL d   1      14.220  12.220  -0.020  0.00  0.00     0.040 C 
BRANCH  13  14
ATOM     14  C   UNL d   1      14.430  13.025  -0.037  0.00  0.00     0.090 A 
ATOM     15  N   UNL d   1      15.226  13.240  -0.087  0.00  0.00    -0.238 NA
ATOM     16  C   UNL d   1      15.266  14.064  -0.095  0.00  0.00     0.111 A 
ATOM     17  S   UNL d   1      14.505  14.356  -0.050  0.00  0.00    -0.066 SA
ATOM     18  C   UNL d   1      15.955  14.525  -0.139  0.00  0.00     0.028 C 
ATOM     19  C   UNL d   1      13.979  13.723  -0.014  0.00  0.00     0.056 A 
ENDBRANCH  13  14
ENDBRANCH  12  13
ENDBRANCH   3  12
TORSDOF 5
ENDMDL
MODEL 2
REMARK VINA RESULT:      14.3      1.483      2.095
REMARK  5 active torsions:
REMARK  status: ('A' for Active; 'I' for Inactive)
REMARK    1  A    between atoms: C_10  and  C_4 
REMARK       I    between atoms: C_6  and  N_8 
REMARK    2  A    between atoms: C_9  and  C_6 
REMARK    3  A    between atoms: N_8  and  C_13 
REMARK    4  A    between atoms: C_11  and  C_9 
REMARK    5  A    between atoms: C_13  and  C_10 
ROOT
ATOM      1  C   UNL d   1      13.016  12.281  -3.932  0.00  0.00     0.279 C 
ATOM      2  O   UNL d   1      12.884  12.012  -4.702  0.00  0.00    -0.265 OA
ATOM      3  N   UNL d   1      13.366  11.788  -3.382  0.00  0.00    -0.206 NA
ENDROOT
BRANCH   1   4
ATOM      4  C   UNL d   1      12.793  13.047  -3.726  0.00  0.00     0.062 C 
BRANCH   4   5
ATOM      5  C   UNL d   1      13.106  13.700  -4.134  0.00  0.00     0.005 A 
ATOM      6  C   UNL d   1      12.958  14.444  -3.848  0.00  0.00     0.001 A 
ATOM      7  C   UNL d   1      13.266  15.096  -4.249  0.00  0.00     0.011 A 
ATOM      8  C   UNL d   1      13.716  14.997  -4.928  0.00  0.00     0.058 A 
ATOM      9  C   UNL d   1      13.865  14.240  -5.216  0.00  0.00     0.011 A 
ATOM     10 CL   UNL d   1      14.022  15.661  -5.325  0.00  0.00    -0.082 Cl
ATOM     11  C   UNL d   1      13.557  13.589  -4.816  0.00  0.00     0.001 A 
ENDBRANCH   4   5
ENDBRANCH   1   4
BRANCH   3  12
ATOM     12  C   UNL d   1      13.499  12.067  -2.599  0.00  0.00     0.104 C 
BRANCH  12  13
ATOM     13  C   UNL d   1      14.146  11.780  -2.174  0.00  0.00     0.040 C 
BRANCH  13  14
ATOM     14  C   UNL d   1      14.280  12.061  -1.402  0.00  0.00     0.090 A 
ATOM     15  N   UNL d   1      14.723  12.749  -1.287  0.00  0.00    -0.238 NA
ATOM     16  C   UNL d   1      14.764  12.892  -0.476  0.00  0.00     0.111 A 
ATOM     17  S   UNL d   1      14.351  12.301  -0.092  0.00  0.00    -0.066 SA
ATOM     18  C   UNL d   1      15.154  13.523  -0.103  0.00  0.00     0.028 C 
ATOM     19  C   UNL d   1      14.047  11.781  -0.655  0.00  0.00     0.056 A 
ENDBRANCH  13  14
ENDBRANCH  12  13
ENDBRANCH   3  12
TORSDOF 5
ENDMDL
