MODEL 1
REMARK VINA RESULT:       1.6      0.000      0.000
REMARK  1 active torsions:
REMARK  status: ('A' for Active; 'I' for Inactive)
REMARK    1  A    between atoms: C_5  and  C_1 
ROOT
ATOM      1  C   UNL d   1     -51.713  24.814  33.310  0.00  0.00     0.169 A 
ATOM      2  N   UNL d   1     -51.217  24.162  33.316  0.00  0.00    -0.142 NA
ATOM      3  C   UNL d   1     -52.485  24.543  33.306  0.00  0.00     0.048 A 
ATOM      4  N   UNL d   1     -51.683  23.480  33.315  0.00  0.00    -0.148 NA
ATOM      5  C   UNL d   1     -52.473  23.717  33.309  0.00  0.00     0.105 A 
ATOM      6  C   UNL d   1     -53.131  23.220  33.306  0.00  0.00     0.023 C 
ENDROOT
BRANCH   1   7
ATOM      7  C   UNL d   1     -51.474  25.608  33.309  0.00  0.00     0.231 C 
ATOM      8  O   UNL d   1     -52.042  26.205  33.307  0.00  0.00    -0.643 OA
ATOM      9  O   UNL d   1     -50.673  25.797  33.310  0.00  0.00    -0.643 OA
ENDBRANCH   1   7
TORSDOF 1
ENDMDL
