MODEL 1
REMARK VINA RESULT:      49.1      0.000      0.000
REMARK  6 active torsions:
REMARK  status: ('A' for Active; 'I' for Inactive)
REMARK    1  A    between atoms: C_16  and  N_1 
REMARK    2  A    between atoms: C_11  and  C_2 
REMARK    3  A    between atoms: S_15  and  C_3 
REMARK    4  A    between atoms: C_8  and  C_11 
REMARK    5  A    between atoms: C_13  and  C_17 
REMARK       I    between atoms: N_14  and  C_13 
REMARK    6  A    between atoms: C_17  and  S_15 
ROOT
ATOM      1  N   UNL d   1      13.441  13.277  -3.990  0.00  0.00    -0.269 N 
ATOM      2  C   UNL d   1      13.564  14.089  -3.929  0.00  0.00     0.172 A 
ATOM      3  C   UNL d   1      13.366  12.984  -3.236  0.00  0.00     0.201 A 
ATOM      4  N   UNL d   1      13.563  14.283  -3.134  0.00  0.00    -0.128 NA
ATOM      5  N   UNL d   1      13.439  13.592  -2.700  0.00  0.00    -0.121 NA
ENDROOT
BRANCH   2   6
ATOM      6  C   UNL d   1      13.660  14.538  -4.601  0.00  0.00     0.059 C 
BRANCH   6   7
ATOM      7  C   UNL d   1      13.971  15.299  -4.541  0.00  0.00     0.094 A 
ATOM      8  C   UNL d   1      14.015  15.779  -5.208  0.00  0.00     0.082 A 
ATOM      9  C   UNL d   1      14.327  16.542  -5.145  0.00  0.00     0.285 A 
ATOM     10  O   UNL d   1      14.375  17.038  -5.825  0.00  0.00    -0.265 OA
ATOM     11  N   UNL d   1      14.593  16.813  -4.402  0.00  0.00    -0.152 NA
ATOM     12  C   UNL d   1      14.548  16.334  -3.743  0.00  0.00     0.371 A 
ATOM     13  N   UNL d   1      14.232  15.566  -3.812  0.00  0.00    -0.191 NA
ATOM     14  O   UNL d   1      14.814  16.614  -3.011  0.00  0.00    -0.242 OA
ENDBRANCH   6   7
ENDBRANCH   2   6
BRANCH   1  15
ATOM     15  C   UNL d   1      13.396  12.818  -4.668  0.00  0.00     0.067 A 
ATOM     16  C   UNL d   1      13.942  12.936  -5.282  0.00  0.00     0.018 A 
ATOM     17  C   UNL d   1      13.899  12.471  -5.972  0.00  0.00     0.002 A 
ATOM     18  C   UNL d   1      13.311  11.894  -6.038  0.00  0.00     0.000 A 
ATOM     19  C   UNL d   1      12.769  11.780  -5.423  0.00  0.00     0.002 A 
ATOM     20  C   UNL d   1      12.813  12.242  -4.741  0.00  0.00     0.018 A 
ENDBRANCH   1  15
BRANCH   3  21
ATOM     21  S   UNL d   1      13.233  12.173  -3.046  0.00  0.00    -0.043 SA
BRANCH  21  22
ATOM     22  C   UNL d   1      13.761  11.779  -2.531  0.00  0.00     0.099 C 
BRANCH  22  23
ATOM     23  C   UNL d   1      13.630  11.805  -1.714  0.00  0.00     0.271 C 
ATOM     24  N   UNL d   1      14.276  11.840  -1.196  0.00  0.00    -0.272 N 
ATOM     25  C   UNL d   1      15.098  11.856  -1.339  0.00  0.00     0.083 A 
ATOM     26  C   UNL d   1      14.156  11.867  -0.377  0.00  0.00     0.083 A 
ATOM     27  C   UNL d   1      15.478  11.892  -0.608  0.00  0.00     0.021 A 
ATOM     28  C   UNL d   1      14.895  11.899  -0.016  0.00  0.00     0.021 A 
ATOM     29  O   UNL d   1      12.858  11.796  -1.408  0.00  0.00    -0.266 OA
ENDBRANCH  22  23
ENDBRANCH  21  22
ENDBRANCH   3  21
TORSDOF 6
ENDMDL
