MODEL 1
REMARK VINA RESULT:      -3.3      0.000      0.000
REMARK  2 active torsions:
REMARK  status: ('A' for Active; 'I' for Inactive)
REMARK    1  A    between atoms: N_9  and  C_3 
REMARK    2  A    between atoms: C_11  and  C_4 
ROOT
ATOM      1  N   UNL d   1      58.629  -0.087  30.479  0.00  0.00    -0.196 N 
ATOM      2  C   UNL d   1      57.969  -0.458  30.792  0.00  0.00     0.167 A 
ATOM      3  C   UNL d   1      59.051  -0.438  29.862  0.00  0.00     0.153 A 
ATOM      4  C   UNL d   1      57.669   0.017  31.389  0.00  0.00     0.057 A 
ATOM      5  N   UNL d   1      58.740   0.619  30.881  0.00  0.00    -0.161 NA
ATOM      6  N   UNL d   1      57.720  -1.186  30.494  0.00  0.00    -0.227 NA
ATOM      7  C   UNL d   1      58.803  -1.169  29.562  0.00  0.00     0.057 A 
ATOM      8  C   UNL d   1      58.142   0.678  31.445  0.00  0.00     0.124 A 
ATOM      9  C   UNL d   1      58.142  -1.540  29.876  0.00  0.00     0.086 A 
ATOM     10  C   UNL d   1      57.898  -2.277  29.568  0.00  0.00     0.021 C 
ENDROOT
BRANCH   3  11
ATOM     11  N   UNL d   1      59.712  -0.067  29.549  0.00  0.00    -0.285 N 
ATOM     12  C   UNL d   1      60.425  -0.060  29.970  0.00  0.00     0.108 A 
ATOM     13  C   UNL d   1      61.089   0.313  29.655  0.00  0.00     0.142 A 
ATOM     14  O   UNL d   1      61.043   0.681  28.917  0.00  0.00    -0.300 OA
ATOM     15  C   UNL d   1      60.335   0.675  28.496  0.00  0.00     0.142 A 
ATOM     16  C   UNL d   1      59.672   0.302  28.811  0.00  0.00     0.108 A 
ENDBRANCH   3  11
BRANCH   4  17
ATOM     17  C   UNL d   1      57.022  -0.069  31.892  0.00  0.00     0.004 A 
ATOM     18  C   UNL d   1      56.926  -0.762  32.344  0.00  0.00     0.000 A 
ATOM     19  C   UNL d   1      56.279  -0.840  32.843  0.00  0.00     0.000 A 
ATOM     20  C   UNL d   1      55.716  -0.232  32.902  0.00  0.00     0.000 A 
ATOM     21  C   UNL d   1      55.813   0.455  32.455  0.00  0.00     0.000 A 
ATOM     22  C   UNL d   1      56.463   0.539  31.950  0.00  0.00     0.000 A 
ENDBRANCH   4  17
TORSDOF 2
ENDMDL
MODEL 2
REMARK VINA RESULT:      -2.2      1.936      4.332
REMARK  2 active torsions:
REMARK  status: ('A' for Active; 'I' for Inactive)
REMARK    1  A    between atoms: N_9  and  C_3 
REMARK    2  A    between atoms: C_11  and  C_4 
ROOT
ATOM      1  N   UNL d   1      57.378   0.000  31.523  0.00  0.00    -0.196 N 
ATOM      2  C   UNL d   1      58.111   0.093  31.166  0.00  0.00     0.167 A 
ATOM      3  C   UNL d   1      57.291   0.133  32.333  0.00  0.00     0.153 A 
ATOM      4  C   UNL d   1      58.028  -0.075  30.368  0.00  0.00     0.057 A 
ATOM      5  N   UNL d   1      56.840  -0.225  30.947  0.00  0.00    -0.161 NA
ATOM      6  N   UNL d   1      58.766   0.319  31.613  0.00  0.00    -0.227 NA
ATOM      7  C   UNL d   1      57.947   0.360  32.783  0.00  0.00     0.057 A 
ATOM      8  C   UNL d   1      57.249  -0.270  30.232  0.00  0.00     0.124 A 
ATOM      9  C   UNL d   1      58.680   0.453  32.426  0.00  0.00     0.086 A 
ATOM     10  C   UNL d   1      59.337   0.682  32.887  0.00  0.00     0.021 C 
ENDROOT
BRANCH   3  11
ATOM     11  N   UNL d   1      56.558   0.041  32.690  0.00  0.00    -0.285 N 
ATOM     12  C   UNL d   1      56.331  -0.697  32.991  0.00  0.00     0.108 A 
ATOM     13  C   UNL d   1      55.595  -0.789  33.350  0.00  0.00     0.142 A 
ATOM     14  O   UNL d   1      55.082  -0.145  33.409  0.00  0.00    -0.300 OA
ATOM     15  C   UNL d   1      55.305   0.589  33.110  0.00  0.00     0.142 A 
ATOM     16  C   UNL d   1      56.041   0.682  32.752  0.00  0.00     0.108 A 
ENDBRANCH   3  11
BRANCH   4  17
ATOM     17  C   UNL d   1      58.566  -0.075  29.744  0.00  0.00     0.004 A 
ATOM     18  C   UNL d   1      58.931  -0.783  29.500  0.00  0.00     0.000 A 
ATOM     19  C   UNL d   1      59.466  -0.775  28.877  0.00  0.00     0.000 A 
ATOM     20  C   UNL d   1      59.648  -0.065  28.486  0.00  0.00     0.000 A 
ATOM     21  C   UNL d   1      59.286   0.636  28.729  0.00  0.00     0.000 A 
ATOM     22  C   UNL d   1      58.745   0.634  29.356  0.00  0.00     0.000 A 
ENDBRANCH   4  17
TORSDOF 2
ENDMDL
MODEL 3
REMARK VINA RESULT:      -1.7      1.542      2.370
REMARK  2 active torsions:
REMARK  status: ('A' for Active; 'I' for Inactive)
REMARK    1  A    between atoms: N_9  and  C_3 
REMARK    2  A    between atoms: C_11  and  C_4 
ROOT
ATOM      1  N   UNL d   1      58.106  -1.408  30.140  0.00  0.00    -0.196 N 
ATOM      2  C   UNL d   1      57.839  -0.691  30.435  0.00  0.00     0.167 A 
ATOM      3  C   UNL d   1      58.512  -1.437  29.422  0.00  0.00     0.153 A 
ATOM      4  C   UNL d   1      57.461  -0.833  31.148  0.00  0.00     0.057 A 
ATOM      5  N   UNL d   1      57.894  -1.996  30.670  0.00  0.00    -0.161 NA
ATOM      6  N   UNL d   1      57.973   0.007  30.015  0.00  0.00    -0.227 NA
ATOM      7  C   UNL d   1      58.647  -0.738  29.000  0.00  0.00     0.057 A 
ATOM      8  C   UNL d   1      57.494  -1.634  31.293  0.00  0.00     0.124 A 
ATOM      9  C   UNL d   1      58.380  -0.021  29.294  0.00  0.00     0.086 A 
ATOM     10  C   UNL d   1      58.521   0.680  28.863  0.00  0.00     0.021 C 
ENDROOT
BRANCH   3  11
ATOM     11  N   UNL d   1      58.779  -2.155  29.128  0.00  0.00    -0.285 N 
ATOM     12  C   UNL d   1      58.254  -2.673  28.751  0.00  0.00     0.108 A 
ATOM     13  C   UNL d   1      58.522  -3.393  28.455  0.00  0.00     0.142 A 
ATOM     14  O   UNL d   1      59.318  -3.600  28.534  0.00  0.00    -0.300 OA
ATOM     15  C   UNL d   1      59.842  -3.087  28.908  0.00  0.00     0.142 A 
ATOM     16  C   UNL d   1      59.574  -2.366  29.204  0.00  0.00     0.108 A 
ENDBRANCH   3  11
BRANCH   4  17
ATOM     17  C   UNL d   1      57.088  -0.333  31.686  0.00  0.00     0.004 A 
ATOM     18  C   UNL d   1      56.257  -0.276  31.707  0.00  0.00     0.000 A 
ATOM     19  C   UNL d   1      55.893   0.225  32.246  0.00  0.00     0.000 A 
ATOM     20  C   UNL d   1      56.347   0.678  32.773  0.00  0.00     0.000 A 
ATOM     21  C   UNL d   1      57.171   0.622  32.752  0.00  0.00     0.000 A 
ATOM     22  C   UNL d   1      57.543   0.118  32.210  0.00  0.00     0.000 A 
ENDBRANCH   4  17
TORSDOF 2
ENDMDL
