MODEL 1
REMARK VINA RESULT:       0.7      0.000      0.000
REMARK  7 active torsions:
REMARK  status: ('A' for Active; 'I' for Inactive)
REMARK    1  A    between atoms: N_10  and  C_4 
REMARK    2  A    between atoms: C_16  and  N_5 
REMARK    3  A    between atoms: C_18  and  N_11 
REMARK    4  A    between atoms: C_22  and  C_16 
REMARK    5  A    between atoms: C_21  and  C_18 
REMARK    6  A    between atoms: C_24  and  C_22 
REMARK    7  A    between atoms: C_23  and  C_24 
ROOT
ATOM      1  C   UNL d   1     -47.510  13.165  21.888  0.00  0.00     0.191 A 
ATOM      2  C   UNL d   1     -47.327  12.713  22.553  0.00  0.00     0.174 A 
ATOM      3  N   UNL d   1     -46.805  13.395  21.526  0.00  0.00    -0.042 NA
ATOM      4  C   UNL d   1     -46.191  13.075  21.981  0.00  0.00     0.722 A 
ATOM      5  N   UNL d   1     -46.506  12.655  22.614  0.00  0.00    -0.132 N 
ATOM      6  N   UNL d   1     -48.302  13.316  21.687  0.00  0.00    -0.239 N 
ATOM      7  C   UNL d   1     -48.923  13.005  22.168  0.00  0.00     0.358 A 
ATOM      8  N   UNL d   1     -48.740  12.553  22.833  0.00  0.00    -0.152 NA
ATOM      9  C   UNL d   1     -47.933  12.405  23.027  0.00  0.00     0.303 A 
ATOM     10  O   UNL d   1     -49.735  13.154  21.971  0.00  0.00    -0.244 OA
ATOM     11  O   UNL d   1     -47.748  11.949  23.698  0.00  0.00    -0.263 OA
ATOM     12  C   UNL d   1     -48.484  13.768  21.023  0.00  0.00     0.105 C 
ENDROOT
BRANCH   4  13
ATOM     13  N   UNL d   1     -45.384  13.167  21.821  0.00  0.00    -0.136 N 
ATOM     14  C   UNL d   1     -44.947  13.745  22.219  0.00  0.00     0.117 A 
ATOM     15  C   UNL d   1     -44.144  13.836  22.060  0.00  0.00     0.100 A 
ATOM     16  N   UNL d   1     -43.776  13.352  21.505  0.00  0.00    -0.300 N 
ATOM     17  C   UNL d   1     -44.205  12.768  21.099  0.00  0.00     0.100 A 
ATOM     18  C   UNL d   1     -45.016  12.676  21.260  0.00  0.00     0.117 A 
BRANCH  16  19
ATOM     19  C   UNL d   1     -43.102  13.124  21.093  0.00  0.00     0.080 C 
BRANCH  19  20
ATOM     20  C   UNL d   1     -42.417  13.573  21.144  0.00  0.00     0.018 A 
ATOM     21  C   UNL d   1     -41.800  13.320  21.613  0.00  0.00     0.002 A 
ATOM     22  C   UNL d   1     -41.111  13.768  21.666  0.00  0.00     0.000 A 
ATOM     23  C   UNL d   1     -41.047  14.471  21.245  0.00  0.00     0.000 A 
ATOM     24  C   UNL d   1     -41.673  14.724  20.771  0.00  0.00     0.000 A 
ATOM     25  C   UNL d   1     -42.355  14.274  20.723  0.00  0.00     0.002 A 
ENDBRANCH  19  20
ENDBRANCH  16  19
ENDBRANCH   4  13
BRANCH   5  26
ATOM     26  C   UNL d   1     -46.122  12.240  23.217  0.00  0.00     0.098 C 
BRANCH  26  27
ATOM     27  C   UNL d   1     -45.795  11.495  23.060  0.00  0.00     0.020 C 
BRANCH  27  28
ATOM     28  C   UNL d   1     -45.590  10.997  23.687  0.00  0.00     0.002 C 
BRANCH  28  29
ATOM     29  C   UNL d   1     -44.976  10.450  23.593  0.00  0.00     0.000 A 
ATOM     30  C   UNL d   1     -45.156   9.677  23.395  0.00  0.00     0.000 A 
ATOM     31  C   UNL d   1     -44.546   9.124  23.299  0.00  0.00     0.000 A 
ATOM     32  C   UNL d   1     -43.758   9.361  23.404  0.00  0.00     0.000 A 
ATOM     33  C   UNL d   1     -43.582  10.143  23.603  0.00  0.00     0.000 A 
ATOM     34  C   UNL d   1     -44.195  10.690  23.698  0.00  0.00     0.000 A 
ENDBRANCH  28  29
ENDBRANCH  27  28
ENDBRANCH  26  27
ENDBRANCH   5  26
TORSDOF 7
ENDMDL
MODEL 2
REMARK VINA RESULT:       1.0      2.696      5.837
REMARK  7 active torsions:
REMARK  status: ('A' for Active; 'I' for Inactive)
REMARK    1  A    between atoms: N_10  and  C_4 
REMARK    2  A    between atoms: C_16  and  N_5 
REMARK    3  A    between atoms: C_18  and  N_11 
REMARK    4  A    between atoms: C_22  and  C_16 
REMARK    5  A    between atoms: C_21  and  C_18 
REMARK    6  A    between atoms: C_24  and  C_22 
REMARK    7  A    between atoms: C_23  and  C_24 
ROOT
ATOM      1  C   UNL d   1     -45.841  10.359  23.252  0.00  0.00     0.191 A 
ATOM      2  C   UNL d   1     -45.648  11.151  23.373  0.00  0.00     0.174 A 
ATOM      3  N   UNL d   1     -46.653  10.305  23.114  0.00  0.00    -0.042 NA
ATOM      4  C   UNL d   1     -46.950  11.077  23.152  0.00  0.00     0.722 A 
ATOM      5  N   UNL d   1     -46.337  11.602  23.311  0.00  0.00    -0.132 N 
ATOM      6  N   UNL d   1     -45.253   9.773  23.283  0.00  0.00    -0.239 N 
ATOM      7  C   UNL d   1     -44.451   9.992  23.438  0.00  0.00     0.358 A 
ATOM      8  N   UNL d   1     -44.259  10.784  23.558  0.00  0.00    -0.152 NA
ATOM      9  C   UNL d   1     -44.864  11.371  23.525  0.00  0.00     0.303 A 
ATOM     10  O   UNL d   1     -43.843   9.401  23.471  0.00  0.00    -0.244 OA
ATOM     11  O   UNL d   1     -44.669  12.170  23.647  0.00  0.00    -0.263 OA
ATOM     12  C   UNL d   1     -45.446   8.981  23.163  0.00  0.00     0.105 C 
ENDROOT
BRANCH   4  13
ATOM     13  N   UNL d   1     -47.744  11.286  23.046  0.00  0.00    -0.136 N 
ATOM     14  C   UNL d   1     -48.083  11.253  22.293  0.00  0.00     0.117 A 
ATOM     15  C   UNL d   1     -48.873  11.461  22.187  0.00  0.00     0.100 A 
ATOM     16  N   UNL d   1     -49.325  11.703  22.831  0.00  0.00    -0.300 N 
ATOM     17  C   UNL d   1     -48.995  11.740  23.591  0.00  0.00     0.100 A 
ATOM     18  C   UNL d   1     -48.198  11.530  23.698  0.00  0.00     0.117 A 
BRANCH  16  19
ATOM     19  C   UNL d   1     -50.041  11.962  23.142  0.00  0.00     0.080 C 
BRANCH  19  20
ATOM     20  C   UNL d   1     -50.382  12.656  22.868  0.00  0.00     0.018 A 
ATOM     21  C   UNL d   1     -50.459  13.296  23.369  0.00  0.00     0.002 A 
ATOM     22  C   UNL d   1     -50.800  13.993  23.097  0.00  0.00     0.000 A 
ATOM     23  C   UNL d   1     -51.064  14.045  22.320  0.00  0.00     0.000 A 
ATOM     24  C   UNL d   1     -50.984  13.396  21.816  0.00  0.00     0.000 A 
ATOM     25  C   UNL d   1     -50.644  12.705  22.093  0.00  0.00     0.002 A 
ENDBRANCH  19  20
ENDBRANCH  16  19
ENDBRANCH   4  13
BRANCH   5  26
ATOM     26  C   UNL d   1     -46.354  12.423  23.400  0.00  0.00     0.098 C 
BRANCH  26  27
ATOM     27  C   UNL d   1     -46.678  12.895  22.803  0.00  0.00     0.020 C 
BRANCH  27  28
ATOM     28  C   UNL d   1     -46.333  13.624  22.622  0.00  0.00     0.002 C 
BRANCH  28  29
ATOM     29  C   UNL d   1     -46.814  14.274  22.446  0.00  0.00     0.000 A 
ATOM     30  C   UNL d   1     -46.949  14.839  23.022  0.00  0.00     0.000 A 
ATOM     31  C   UNL d   1     -47.430  15.493  22.854  0.00  0.00     0.000 A 
ATOM     32  C   UNL d   1     -47.770  15.568  22.101  0.00  0.00     0.000 A 
ATOM     33  C   UNL d   1     -47.630  14.994  21.523  0.00  0.00     0.000 A 
ATOM     34  C   UNL d   1     -47.150  14.344  21.697  0.00  0.00     0.000 A 
ENDBRANCH  28  29
ENDBRANCH  27  28
ENDBRANCH  26  27
ENDBRANCH   5  26
TORSDOF 7
ENDMDL
MODEL 3
REMARK VINA RESULT:       1.5      1.841      5.049
REMARK  7 active torsions:
REMARK  status: ('A' for Active; 'I' for Inactive)
REMARK    1  A    between atoms: N_10  and  C_4 
REMARK    2  A    between atoms: C_16  and  N_5 
REMARK    3  A    between atoms: C_18  and  N_11 
REMARK    4  A    between atoms: C_22  and  C_16 
REMARK    5  A    between atoms: C_21  and  C_18 
REMARK    6  A    between atoms: C_24  and  C_22 
REMARK    7  A    between atoms: C_23  and  C_24 
ROOT
ATOM      1  C   UNL d   1     -45.118  10.949  23.235  0.00  0.00     0.191 A 
ATOM      2  C   UNL d   1     -44.508  11.448  22.996  0.00  0.00     0.174 A 
ATOM      3  N   UNL d   1     -45.828  11.369  23.201  0.00  0.00    -0.042 NA
ATOM      4  C   UNL d   1     -45.639  12.131  22.937  0.00  0.00     0.722 A 
ATOM      5  N   UNL d   1     -44.829  12.186  22.809  0.00  0.00    -0.132 N 
ATOM      6  N   UNL d   1     -44.959  10.165  23.459  0.00  0.00    -0.239 N 
ATOM      7  C   UNL d   1     -44.164   9.879  23.440  0.00  0.00     0.358 A 
ATOM      8  N   UNL d   1     -43.553  10.377  23.201  0.00  0.00    -0.152 NA
ATOM      9  C   UNL d   1     -43.727  11.171  22.976  0.00  0.00     0.303 A 
ATOM     10  O   UNL d   1     -43.990   9.079  23.667  0.00  0.00    -0.244 OA
ATOM     11  O   UNL d   1     -43.110  11.675  22.734  0.00  0.00    -0.263 OA
ATOM     12  C   UNL d   1     -45.569   9.667  23.698  0.00  0.00     0.105 C 
ENDROOT
BRANCH   4  13
ATOM     13  N   UNL d   1     -46.184  12.742  22.819  0.00  0.00    -0.136 N 
ATOM     14  C   UNL d   1     -46.740  12.689  22.210  0.00  0.00     0.117 A 
ATOM     15  C   UNL d   1     -47.283  13.298  22.093  0.00  0.00     0.100 A 
ATOM     16  N   UNL d   1     -47.272  13.959  22.583  0.00  0.00    -0.300 N 
ATOM     17  C   UNL d   1     -46.719  14.023  23.199  0.00  0.00     0.100 A 
ATOM     18  C   UNL d   1     -46.171  13.408  23.316  0.00  0.00     0.117 A 
BRANCH  16  19
ATOM     19  C   UNL d   1     -47.578  14.691  22.800  0.00  0.00     0.080 C 
BRANCH  19  20
ATOM     20  C   UNL d   1     -48.369  14.863  22.664  0.00  0.00     0.018 A 
ATOM     21  C   UNL d   1     -48.910  14.792  23.272  0.00  0.00     0.002 A 
ATOM     22  C   UNL d   1     -49.703  14.964  23.139  0.00  0.00     0.000 A 
ATOM     23  C   UNL d   1     -49.951  15.208  22.394  0.00  0.00     0.000 A 
ATOM     24  C   UNL d   1     -49.402  15.279  21.782  0.00  0.00     0.000 A 
ATOM     25  C   UNL d   1     -48.613  15.106  21.921  0.00  0.00     0.002 A 
ENDBRANCH  19  20
ENDBRANCH  16  19
ENDBRANCH   4  13
BRANCH   5  26
ATOM     26  C   UNL d   1     -44.376  12.826  22.547  0.00  0.00     0.098 C 
BRANCH  26  27
ATOM     27  C   UNL d   1     -43.982  12.781  21.820  0.00  0.00     0.020 C 
BRANCH  27  28
ATOM     28  C   UNL d   1     -43.830  13.472  21.392  0.00  0.00     0.002 C 
BRANCH  28  29
ATOM     29  C   UNL d   1     -43.063  13.625  21.120  0.00  0.00     0.000 A 
ATOM     30  C   UNL d   1     -42.707  13.094  20.610  0.00  0.00     0.000 A 
ATOM     31  C   UNL d   1     -41.940  13.240  20.333  0.00  0.00     0.000 A 
ATOM     32  C   UNL d   1     -41.539  13.926  20.576  0.00  0.00     0.000 A 
ATOM     33  C   UNL d   1     -41.905  14.459  21.092  0.00  0.00     0.000 A 
ATOM     34  C   UNL d   1     -42.670  14.307  21.365  0.00  0.00     0.000 A 
ENDBRANCH  28  29
ENDBRANCH  27  28
ENDBRANCH  26  27
ENDBRANCH   5  26
TORSDOF 7
ENDMDL
MODEL 4
REMARK VINA RESULT:       3.0      1.750      3.870
REMARK  7 active torsions:
REMARK  status: ('A' for Active; 'I' for Inactive)
REMARK    1  A    between atoms: N_10  and  C_4 
REMARK    2  A    between atoms: C_16  and  N_5 
REMARK    3  A    between atoms: C_18  and  N_11 
REMARK    4  A    between atoms: C_22  and  C_16 
REMARK    5  A    between atoms: C_21  and  C_18 
REMARK    6  A    between atoms: C_24  and  C_22 
REMARK    7  A    between atoms: C_23  and  C_24 
ROOT
ATOM      1  C   UNL d   1     -43.771  10.969  22.706  0.00  0.00     0.191 A 
ATOM      2  C   UNL d   1     -44.338  11.543  22.872  0.00  0.00     0.174 A 
ATOM      3  N   UNL d   1     -43.164  11.317  22.268  0.00  0.00    -0.042 NA
ATOM      4  C   UNL d   1     -43.372  12.113  22.170  0.00  0.00     0.722 A 
ATOM      5  N   UNL d   1     -44.092  12.258  22.539  0.00  0.00    -0.132 N 
ATOM      6  N   UNL d   1     -43.872  10.189  22.974  0.00  0.00    -0.239 N 
ATOM      7  C   UNL d   1     -44.561   9.985  23.419  0.00  0.00     0.358 A 
ATOM      8  N   UNL d   1     -45.127  10.560  23.585  0.00  0.00    -0.152 NA
ATOM      9  C   UNL d   1     -45.015  11.348  23.308  0.00  0.00     0.303 A 
ATOM     10  O   UNL d   1     -44.673   9.191  23.697  0.00  0.00    -0.244 OA
ATOM     11  O   UNL d   1     -45.587  11.929  23.475  0.00  0.00    -0.263 OA
ATOM     12  C   UNL d   1     -43.305   9.614  22.808  0.00  0.00     0.105 C 
ENDROOT
BRANCH   4  13
ATOM     13  N   UNL d   1     -42.921  12.675  21.763  0.00  0.00    -0.136 N 
ATOM     14  C   UNL d   1     -43.141  12.907  21.001  0.00  0.00     0.117 A 
ATOM     15  C   UNL d   1     -42.692  13.467  20.595  0.00  0.00     0.100 A 
ATOM     16  N   UNL d   1     -42.025  13.794  20.948  0.00  0.00    -0.300 N 
ATOM     17  C   UNL d   1     -41.794  13.569  21.713  0.00  0.00     0.100 A 
ATOM     18  C   UNL d   1     -42.248  13.004  22.122  0.00  0.00     0.117 A 
BRANCH  16  19
ATOM     19  C   UNL d   1     -41.381  14.305  20.919  0.00  0.00     0.080 C 
BRANCH  19  20
ATOM     20  C   UNL d   1     -41.147  14.633  20.204  0.00  0.00     0.018 A 
ATOM     21  C   UNL d   1     -41.333  15.409  20.033  0.00  0.00     0.002 A 
ATOM     22  C   UNL d   1     -41.100  15.740  19.317  0.00  0.00     0.000 A 
ATOM     23  C   UNL d   1     -40.678  15.288  18.774  0.00  0.00     0.000 A 
ATOM     24  C   UNL d   1     -40.492  14.504  18.951  0.00  0.00     0.000 A 
ATOM     25  C   UNL d   1     -40.727  14.180  19.665  0.00  0.00     0.002 A 
ENDBRANCH  19  20
ENDBRANCH  16  19
ENDBRANCH   4  13
BRANCH   5  26
ATOM     26  C   UNL d   1     -44.526  12.960  22.595  0.00  0.00     0.098 C 
BRANCH  26  27
ATOM     27  C   UNL d   1     -45.294  12.993  22.288  0.00  0.00     0.020 C 
BRANCH  27  28
ATOM     28  C   UNL d   1     -45.640  13.727  22.127  0.00  0.00     0.002 C 
BRANCH  28  29
ATOM     29  C   UNL d   1     -46.462  13.812  22.173  0.00  0.00     0.000 A 
ATOM     30  C   UNL d   1     -46.779  14.354  22.697  0.00  0.00     0.000 A 
ATOM     31  C   UNL d   1     -47.601  14.445  22.750  0.00  0.00     0.000 A 
ATOM     32  C   UNL d   1     -48.096  13.983  22.269  0.00  0.00     0.000 A 
ATOM     33  C   UNL d   1     -47.770  13.437  21.741  0.00  0.00     0.000 A 
ATOM     34  C   UNL d   1     -46.949  13.351  21.694  0.00  0.00     0.000 A 
ENDBRANCH  28  29
ENDBRANCH  27  28
ENDBRANCH  26  27
ENDBRANCH   5  26
TORSDOF 7
ENDMDL
MODEL 5
REMARK VINA RESULT:       3.2      7.546      8.891
REMARK  7 active torsions:
REMARK  status: ('A' for Active; 'I' for Inactive)
REMARK    1  A    between atoms: N_10  and  C_4 
REMARK    2  A    between atoms: C_16  and  N_5 
REMARK    3  A    between atoms: C_18  and  N_11 
REMARK    4  A    between atoms: C_22  and  C_16 
REMARK    5  A    between atoms: C_21  and  C_18 
REMARK    6  A    between atoms: C_24  and  C_22 
REMARK    7  A    between atoms: C_23  and  C_24 
ROOT
ATOM      1  C   UNL d   1     -37.949  11.323  18.396  0.00  0.00     0.191 A 
ATOM      2  C   UNL d   1     -37.951  11.972  17.890  0.00  0.00     0.174 A 
ATOM      3  N   UNL d   1     -37.950  11.598  19.175  0.00  0.00    -0.042 NA
ATOM      4  C   UNL d   1     -37.953  12.425  19.132  0.00  0.00     0.722 A 
ATOM      5  N   UNL d   1     -37.954  12.661  18.345  0.00  0.00    -0.132 N 
ATOM      6  N   UNL d   1     -37.945  10.550  18.091  0.00  0.00    -0.239 N 
ATOM      7  C   UNL d   1     -37.945  10.431  17.254  0.00  0.00     0.358 A 
ATOM      8  N   UNL d   1     -37.947  11.081  16.747  0.00  0.00    -0.152 NA
ATOM      9  C   UNL d   1     -37.951  11.861  17.068  0.00  0.00     0.303 A 
ATOM     10  O   UNL d   1     -37.941   9.646  16.932  0.00  0.00    -0.244 OA
ATOM     11  O   UNL d   1     -37.953  12.517  16.557  0.00  0.00    -0.263 OA
ATOM     12  C   UNL d   1     -37.943   9.901  18.598  0.00  0.00     0.105 C 
ENDROOT
BRANCH   4  13
ATOM     13  N   UNL d   1     -37.956  12.934  19.785  0.00  0.00    -0.136 N 
ATOM     14  C   UNL d   1     -37.942  13.753  19.670  0.00  0.00     0.117 A 
ATOM     15  C   UNL d   1     -37.944  14.260  20.320  0.00  0.00     0.100 A 
ATOM     16  N   UNL d   1     -37.960  13.952  21.083  0.00  0.00    -0.300 N 
ATOM     17  C   UNL d   1     -37.974  13.132  21.210  0.00  0.00     0.100 A 
ATOM     18  C   UNL d   1     -37.971  12.620  20.554  0.00  0.00     0.117 A 
BRANCH  16  19
ATOM     19  C   UNL d   1     -37.970  14.065  21.897  0.00  0.00     0.080 C 
BRANCH  19  20
ATOM     20  C   UNL d   1     -38.401  14.684  22.222  0.00  0.00     0.018 A 
ATOM     21  C   UNL d   1     -38.143  15.043  22.907  0.00  0.00     0.002 A 
ATOM     22  C   UNL d   1     -38.572  15.663  23.235  0.00  0.00     0.000 A 
ATOM     23  C   UNL d   1     -39.263  15.920  22.871  0.00  0.00     0.000 A 
ATOM     24  C   UNL d   1     -39.522  15.555  22.177  0.00  0.00     0.000 A 
ATOM     25  C   UNL d   1     -39.090  14.938  21.856  0.00  0.00     0.002 A 
ENDBRANCH  19  20
ENDBRANCH  16  19
ENDBRANCH   4  13
BRANCH   5  26
ATOM     26  C   UNL d   1     -37.957  13.422  18.021  0.00  0.00     0.098 C 
BRANCH  26  27
ATOM     27  C   UNL d   1     -38.615  13.682  17.590  0.00  0.00     0.020 C 
BRANCH  27  28
ATOM     28  C   UNL d   1     -38.652  14.467  17.332  0.00  0.00     0.002 C 
BRANCH  28  29
ATOM     29  C   UNL d   1     -39.382  14.857  17.309  0.00  0.00     0.000 A 
ATOM     30  C   UNL d   1     -39.706  15.056  16.585  0.00  0.00     0.000 A 
ATOM     31  C   UNL d   1     -40.437  15.446  16.554  0.00  0.00     0.000 A 
ATOM     32  C   UNL d   1     -40.833  15.632  17.259  0.00  0.00     0.000 A 
ATOM     33  C   UNL d   1     -40.500  15.428  17.988  0.00  0.00     0.000 A 
ATOM     34  C   UNL d   1     -39.771  15.039  18.013  0.00  0.00     0.000 A 
ENDBRANCH  28  29
ENDBRANCH  27  28
ENDBRANCH  26  27
ENDBRANCH   5  26
TORSDOF 7
ENDMDL
