MODEL 1
REMARK VINA RESULT:      39.2      0.000      0.000
REMARK  6 active torsions:
REMARK  status: ('A' for Active; 'I' for Inactive)
REMARK    1  A    between atoms: N_5  and  C_1 
REMARK    2  A    between atoms: N_7  and  C_2 
REMARK    3  A    between atoms: C_8  and  N_3 
REMARK    4  A    between atoms: C_18  and  C_8 
REMARK    5  A    between atoms: C_14  and  N_9 
REMARK    6  A    between atoms: C_19  and  C_14 
ROOT
ATOM      1  C   UNL d   1      44.293 -15.160  44.778  0.00  0.00     0.242 A 
ATOM      2  C   UNL d   1      45.051 -15.052  44.470  0.00  0.00     0.175 A 
ATOM      3  N   UNL d   1      45.204 -14.231  44.455  0.00  0.00    -0.274 N 
ATOM      4  N   UNL d   1      43.973 -14.410  44.955  0.00  0.00    -0.203 NA
ATOM      5  C   UNL d   1      44.543 -13.846  44.751  0.00  0.00     0.151 A 
ATOM      6  C   UNL d   1      44.461 -13.029  44.833  0.00  0.00     0.041 C 
ENDROOT
BRANCH   2   7
ATOM      7  N   UNL d   1      45.447 -15.742  44.265  0.00  0.00    -0.285 N 
ATOM      8  C   UNL d   1      45.554 -15.944  43.470  0.00  0.00     0.101 A 
ATOM      9  C   UNL d   1      45.956 -16.643  43.275  0.00  0.00     0.100 A 
ATOM     10  N   UNL d   1      46.245 -17.131  43.865  0.00  0.00    -0.300 N 
ATOM     11  C   UNL d   1      46.138 -16.929  44.660  0.00  0.00     0.100 A 
ATOM     12  C   UNL d   1      45.742 -16.241  44.857  0.00  0.00     0.101 A 
BRANCH  10  13
ATOM     13  C   UNL d   1      46.647 -17.831  43.666  0.00  0.00     0.080 C 
BRANCH  13  14
ATOM     14  C   UNL d   1      46.272 -18.407  43.222  0.00  0.00     0.018 A 
ATOM     15  C   UNL d   1      46.088 -18.263  42.428  0.00  0.00     0.002 A 
ATOM     16  C   UNL d   1      45.711 -18.838  41.976  0.00  0.00     0.000 A 
ATOM     17  C   UNL d   1      45.514 -19.568  42.322  0.00  0.00     0.000 A 
ATOM     18  C   UNL d   1      45.698 -19.712  43.115  0.00  0.00     0.000 A 
ATOM     19  C   UNL d   1      46.079 -19.124  43.564  0.00  0.00     0.002 A 
ENDBRANCH  13  14
ENDBRANCH  10  13
ENDBRANCH   2   7
BRANCH   1  20
ATOM     20  N   UNL d   1      43.906 -15.885  44.896  0.00  0.00    -0.092 N 
ATOM     21  O   UNL d   1      44.336 -16.580  44.955  0.00  0.00    -0.530 OA
ATOM     22  O   UNL d   1      43.081 -15.899  44.955  0.00  0.00    -0.530 OA
ENDBRANCH   1  20
BRANCH   3  23
ATOM     23  C   UNL d   1      45.902 -13.881  44.186  0.00  0.00     0.083 C 
BRANCH  23  24
ATOM     24  C   UNL d   1      45.894 -13.356  43.551  0.00  0.00     0.018 A 
ATOM     25  C   UNL d   1      46.465 -13.429  42.955  0.00  0.00     0.002 A 
ATOM     26  C   UNL d   1      46.462 -12.903  42.313  0.00  0.00     0.000 A 
ATOM     27  C   UNL d   1      45.892 -12.314  42.274  0.00  0.00     0.000 A 
ATOM     28  C   UNL d   1      45.325 -12.240  42.863  0.00  0.00     0.000 A 
ATOM     29  C   UNL d   1      45.328 -12.766  43.505  0.00  0.00     0.002 A 
ENDBRANCH  23  24
ENDBRANCH   3  23
TORSDOF 6
ENDMDL
