MODEL 1
REMARK VINA RESULT:      32.3      0.000      0.000
REMARK  7 active torsions:
REMARK  status: ('A' for Active; 'I' for Inactive)
REMARK    1  A    between atoms: C_2  and  S_1 
REMARK    2  A    between atoms: N_8  and  S_1 
REMARK    3  A    between atoms: C_13  and  N_8 
REMARK    4  A    between atoms: N_9  and  C_14 
REMARK    5  A    between atoms: O_15  and  C_10 
REMARK    6  A    between atoms: C_14  and  C_13 
REMARK    7  A    between atoms: C_22  and  O_15 
ROOT
ATOM      1  C   UNL d   1      13.612  12.469  -2.967  0.00  0.00     0.105 A 
ATOM      2  C   UNL d   1      13.454  13.181  -3.336  0.00  0.00     0.014 A 
ATOM      3  C   UNL d   1      13.374  13.215  -4.156  0.00  0.00     0.024 A 
ATOM      4  C   UNL d   1      13.692  11.779  -3.418  0.00  0.00     0.015 A 
ATOM      5  C   UNL d   1      13.452  12.539  -4.608  0.00  0.00     0.100 A 
ATOM      6  C   UNL d   1      13.612  11.814  -4.239  0.00  0.00     0.025 A 
ATOM      7  C   UNL d   1      13.375  13.866  -2.885  0.00  0.00     0.001 A 
ATOM      8  C   UNL d   1      13.215  13.935  -4.526  0.00  0.00     0.002 A 
ATOM      9  C   UNL d   1      13.216  14.587  -3.253  0.00  0.00     0.000 A 
ATOM     10  C   UNL d   1      13.135  14.622  -4.073  0.00  0.00     0.000 A 
ENDROOT
BRANCH   1  11
ATOM     11  S   UNL d   1      13.692  12.435  -2.147  0.00  0.00     0.285 S 
ATOM     12  O   UNL d   1      14.391  12.884  -2.196  0.00  0.00    -0.198 OA
ATOM     13  O   UNL d   1      13.008  11.994  -2.099  0.00  0.00    -0.198 OA
BRANCH  11  14
ATOM     14  N   UNL d   1      13.773  12.400  -1.326  0.00  0.00    -0.155 NA
BRANCH  14  15
ATOM     15  C   UNL d   1      14.512  12.328  -0.986  0.00  0.00     0.131 C 
BRANCH  15  16
ATOM     16  C   UNL d   1      14.667  12.664  -0.249  0.00  0.00     0.102 C 
BRANCH  16  17
ATOM     17  N   UNL d   1      15.130  13.343  -0.195  0.00  0.00    -0.298 N 
ATOM     18  C   UNL d   1      15.951  13.291  -0.266  0.00  0.00     0.107 A 
ATOM     19  C   UNL d   1      16.419  13.972  -0.212  0.00  0.00     0.142 A 
ATOM     20  O   UNL d   1      16.063  14.706  -0.087  0.00  0.00    -0.300 OA
ATOM     21  C   UNL d   1      15.238  14.758  -0.016  0.00  0.00     0.142 A 
ATOM     22  C   UNL d   1      14.774  14.077  -0.070  0.00  0.00     0.107 A 
ENDBRANCH  16  17
ENDBRANCH  15  16
ENDBRANCH  14  15
ENDBRANCH  11  14
ENDBRANCH   1  11
BRANCH   5  23
ATOM     23  O   UNL d   1      13.373  12.567  -5.428  0.00  0.00    -0.305 OA
BRANCH  23  24
ATOM     24  C   UNL d   1      13.653  11.951  -5.897  0.00  0.00     0.123 C 
ATOM     25  C   UNL d   1      14.320  12.062  -6.370  0.00  0.00     0.029 C 
ENDBRANCH  23  24
ENDBRANCH   5  23
TORSDOF 7
ENDMDL
MODEL 2
REMARK VINA RESULT:      33.9      1.146      4.626
REMARK  7 active torsions:
REMARK  status: ('A' for Active; 'I' for Inactive)
REMARK    1  A    between atoms: C_2  and  S_1 
REMARK    2  A    between atoms: N_8  and  S_1 
REMARK    3  A    between atoms: C_13  and  N_8 
REMARK    4  A    between atoms: N_9  and  C_14 
REMARK    5  A    between atoms: O_15  and  C_10 
REMARK    6  A    between atoms: C_14  and  C_13 
REMARK    7  A    between atoms: C_22  and  O_15 
ROOT
ATOM      1  C   UNL d   1      14.246  13.003  -1.591  0.00  0.00     0.105 A 
ATOM      2  C   UNL d   1      14.834  12.784  -1.068  0.00  0.00     0.014 A 
ATOM      3  C   UNL d   1      15.152  13.336  -0.544  0.00  0.00     0.024 A 
ATOM      4  C   UNL d   1      13.968  13.783  -1.595  0.00  0.00     0.015 A 
ATOM      5  C   UNL d   1      14.882  14.107  -0.543  0.00  0.00     0.100 A 
ATOM      6  C   UNL d   1      14.286  14.335  -1.071  0.00  0.00     0.025 A 
ATOM      7  C   UNL d   1      15.110  12.007  -1.065  0.00  0.00     0.001 A 
ATOM      8  C   UNL d   1      15.746  13.111  -0.017  0.00  0.00     0.002 A 
ATOM      9  C   UNL d   1      15.703  11.781  -0.538  0.00  0.00     0.000 A 
ATOM     10  C   UNL d   1      16.021  12.333  -0.014  0.00  0.00     0.000 A 
ENDROOT
BRANCH   1  11
ATOM     11  S   UNL d   1      13.928  12.450  -2.115  0.00  0.00     0.285 S 
ATOM     12  O   UNL d   1      13.942  13.019  -2.722  0.00  0.00    -0.198 OA
ATOM     13  O   UNL d   1      13.915  11.894  -1.519  0.00  0.00    -0.198 OA
BRANCH  11  14
ATOM     14  N   UNL d   1      13.610  11.898  -2.638  0.00  0.00    -0.155 NA
BRANCH  14  15
ATOM     15  C   UNL d   1      13.003  12.109  -3.143  0.00  0.00     0.131 C 
BRANCH  15  16
ATOM     16  C   UNL d   1      12.955  11.781  -3.898  0.00  0.00     0.102 C 
BRANCH  16  17
ATOM     17  N   UNL d   1      13.114  12.246  -4.560  0.00  0.00    -0.298 N 
ATOM     18  C   UNL d   1      12.934  13.051  -4.553  0.00  0.00     0.107 A 
ATOM     19  C   UNL d   1      13.093  13.520  -5.217  0.00  0.00     0.142 A 
ATOM     20  O   UNL d   1      13.432  13.180  -5.888  0.00  0.00    -0.300 OA
ATOM     21  C   UNL d   1      13.612  12.371  -5.894  0.00  0.00     0.142 A 
ATOM     22  C   UNL d   1      13.453  11.906  -5.231  0.00  0.00     0.107 A 
ENDBRANCH  16  17
ENDBRANCH  15  16
ENDBRANCH  14  15
ENDBRANCH  11  14
ENDBRANCH   1  11
BRANCH   5  23
ATOM     23  O   UNL d   1      15.196  14.664  -0.022  0.00  0.00    -0.305 OA
BRANCH  23  24
ATOM     24  C   UNL d   1      15.613  15.314  -0.305  0.00  0.00     0.123 C 
ATOM     25  C   UNL d   1      15.402  16.076  -0.070  0.00  0.00     0.029 C 
ENDBRANCH  23  24
ENDBRANCH   5  23
TORSDOF 7
ENDMDL
