MODEL 1
REMARK VINA RESULT:      -3.9      0.000      0.000
REMARK  3 active torsions:
REMARK  status: ('A' for Active; 'I' for Inactive)
REMARK    1  A    between atoms: S_12  and  C_6 
REMARK    2  A    between atoms: C_10  and  C_14 
REMARK       I    between atoms: N_11  and  C_10 
REMARK    3  A    between atoms: C_14  and  S_12 
ROOT
ATOM      1  C   UNL d   1      57.108   0.668  33.602  0.00  0.00     0.155 A 
ATOM      2  C   UNL d   1      56.508   0.661  33.031  0.00  0.00     0.107 A 
ATOM      3  N   UNL d   1      58.091   0.675  32.563  0.00  0.00    -0.250 N 
ATOM      4  C   UNL d   1      57.895   0.675  33.370  0.00  0.00     0.285 A 
ATOM      5  N   UNL d   1      56.703   0.661  32.225  0.00  0.00    -0.220 NA
ATOM      6  C   UNL d   1      57.495   0.668  32.001  0.00  0.00     0.182 A 
ATOM      7  N   UNL d   1      56.754   0.666  34.346  0.00  0.00    -0.239 NA
ATOM      8  C   UNL d   1      55.782   0.655  33.417  0.00  0.00     0.037 A 
ATOM      9  C   UNL d   1      55.932   0.659  34.238  0.00  0.00     0.083 A 
ATOM     10  O   UNL d   1      58.503   0.682  33.936  0.00  0.00    -0.265 OA
ATOM     11  C   UNL d   1      58.885   0.682  32.328  0.00  0.00     0.104 C 
ATOM     12  C   UNL d   1      55.007   0.648  33.143  0.00  0.00     0.003 A 
ATOM     13  C   UNL d   1      55.303   0.654  34.775  0.00  0.00     0.019 A 
ATOM     14  C   UNL d   1      54.377   0.643  33.681  0.00  0.00     0.000 A 
ATOM     15  C   UNL d   1      54.528   0.646  34.491  0.00  0.00     0.002 A 
ENDROOT
BRANCH   6  16
ATOM     16  S   UNL d   1      57.692   0.668  31.199  0.00  0.00    -0.044 SA
BRANCH  16  17
ATOM     17  C   UNL d   1      57.785  -0.043  30.793  0.00  0.00     0.099 C 
BRANCH  17  18
ATOM     18  C   UNL d   1      58.012  -0.041  30.002  0.00  0.00     0.271 C 
ATOM     19  N   UNL d   1      58.266  -0.737  29.655  0.00  0.00    -0.272 N 
ATOM     20  C   UNL d   1      58.496  -0.747  28.864  0.00  0.00     0.083 A 
ATOM     21  C   UNL d   1      58.294  -1.434  30.096  0.00  0.00     0.083 A 
ATOM     22  C   UNL d   1      58.749  -1.441  28.520  0.00  0.00     0.019 A 
ATOM     23  C   UNL d   1      58.780  -2.137  28.949  0.00  0.00     0.003 A 
ATOM     24  C   UNL d   1      58.552  -2.137  29.742  0.00  0.00     0.019 A 
ATOM     25  O   UNL d   1      57.987   0.647  29.558  0.00  0.00    -0.266 OA
ENDBRANCH  17  18
ENDBRANCH  16  17
ENDBRANCH   6  16
TORSDOF 3
ENDMDL
MODEL 2
REMARK VINA RESULT:      -3.3      9.948     10.729
REMARK  3 active torsions:
REMARK  status: ('A' for Active; 'I' for Inactive)
REMARK    1  A    between atoms: S_12  and  C_6 
REMARK    2  A    between atoms: C_10  and  C_14 
REMARK       I    between atoms: N_11  and  C_10 
REMARK    3  A    between atoms: C_14  and  S_12 
ROOT
ATOM      1  C   UNL d   1      58.955  -9.803  29.777  0.00  0.00     0.155 A 
ATOM      2  C   UNL d   1      58.588  -9.810  30.520  0.00  0.00     0.107 A 
ATOM      3  N   UNL d   1      60.235  -9.804  30.413  0.00  0.00    -0.250 N 
ATOM      4  C   UNL d   1      59.773  -9.800  29.723  0.00  0.00     0.285 A 
ATOM      5  N   UNL d   1      59.049  -9.814  31.209  0.00  0.00    -0.220 NA
ATOM      6  C   UNL d   1      59.869  -9.811  31.146  0.00  0.00     0.182 A 
ATOM      7  N   UNL d   1      58.366  -9.799  29.200  0.00  0.00    -0.239 NA
ATOM      8  C   UNL d   1      57.773  -9.812  30.408  0.00  0.00     0.037 A 
ATOM      9  C   UNL d   1      57.631  -9.805  29.586  0.00  0.00     0.083 A 
ATOM     10  O   UNL d   1      60.148  -9.792  28.982  0.00  0.00    -0.265 OA
ATOM     11  C   UNL d   1      61.062  -9.801  30.360  0.00  0.00     0.104 C 
ATOM     12  C   UNL d   1      57.140  -9.818  30.932  0.00  0.00     0.003 A 
ATOM     13  C   UNL d   1      56.855  -9.805  29.298  0.00  0.00     0.019 A 
ATOM     14  C   UNL d   1      56.364  -9.818  30.645  0.00  0.00     0.000 A 
ATOM     15  C   UNL d   1      56.225  -9.811  29.832  0.00  0.00     0.002 A 
ENDROOT
BRANCH   6  16
ATOM     16  S   UNL d   1      60.331  -9.816  31.831  0.00  0.00    -0.044 SA
BRANCH  16  17
ATOM     17  C   UNL d   1      59.987  -9.670  32.566  0.00  0.00     0.099 C 
BRANCH  17  18
ATOM     18  C   UNL d   1      60.397  -9.243  33.137  0.00  0.00     0.271 C 
ATOM     19  N   UNL d   1      60.112  -9.221  33.904  0.00  0.00    -0.272 N 
ATOM     20  C   UNL d   1      60.515  -8.797  34.484  0.00  0.00     0.083 A 
ATOM     21  C   UNL d   1      59.420  -9.625  34.101  0.00  0.00     0.083 A 
ATOM     22  C   UNL d   1      60.229  -8.776  35.247  0.00  0.00     0.019 A 
ATOM     23  C   UNL d   1      59.544  -9.173  35.452  0.00  0.00     0.003 A 
ATOM     24  C   UNL d   1      59.134  -9.601  34.878  0.00  0.00     0.019 A 
ATOM     25  O   UNL d   1      61.085  -8.840  32.949  0.00  0.00    -0.266 OA
ENDBRANCH  17  18
ENDBRANCH  16  17
ENDBRANCH   6  16
TORSDOF 3
ENDMDL
