MODEL 1
REMARK VINA RESULT:      -2.6      0.000      0.000
REMARK  4 active torsions:
REMARK  status: ('A' for Active; 'I' for Inactive)
REMARK    1  A    between atoms: N_11  and  C_4 
REMARK    2  A    between atoms: C_13  and  C_17 
REMARK    3  A    between atoms: C_17  and  N_16 
REMARK    4  A    between atoms: O_29  and  C_18 
ROOT
ATOM      1  N   UNL d   1      58.686  -0.955  29.865  0.00  0.00    -0.195 N 
ATOM      2  C   UNL d   1      59.303  -1.186  29.394  0.00  0.00     0.168 A 
ATOM      3  C   UNL d   1      59.373  -1.946  29.158  0.00  0.00     0.073 A 
ATOM      4  C   UNL d   1      58.632  -0.193  30.091  0.00  0.00     0.153 A 
ATOM      5  N   UNL d   1      58.204  -2.243  29.866  0.00  0.00    -0.143 NA
ATOM      6  C   UNL d   1      58.821  -2.474  29.395  0.00  0.00     0.185 A 
ATOM      7  N   UNL d   1      59.851  -0.649  29.162  0.00  0.00    -0.227 NA
ATOM      8  C   UNL d   1      59.984  -2.175  28.693  0.00  0.00     0.007 A 
ATOM      9  N   UNL d   1      58.879  -3.247  29.164  0.00  0.00    -0.225 NA
ATOM     10  C   UNL d   1      59.171   0.344  29.864  0.00  0.00     0.057 A 
ATOM     11  C   UNL d   1      60.053  -2.935  28.457  0.00  0.00     0.019 A 
ATOM     12  C   UNL d   1      59.789   0.113  29.394  0.00  0.00     0.086 A 
ATOM     13  C   UNL d   1      59.497  -3.479  28.694  0.00  0.00     0.083 A 
ATOM     14  C   UNL d   1      60.533  -1.634  28.461  0.00  0.00     0.000 C 
ATOM     15  C   UNL d   1      60.357   0.674  29.154  0.00  0.00     0.021 C 
ATOM     16  C   UNL d   1      59.560  -4.236  28.462  0.00  0.00     0.021 C 
ENDROOT
BRANCH   4  17
ATOM     17  N   UNL d   1      57.991   0.039  30.576  0.00  0.00    -0.286 N 
ATOM     18  C   UNL d   1      57.214   0.268  30.447  0.00  0.00     0.101 A 
ATOM     19  C   UNL d   1      56.725   0.464  31.093  0.00  0.00     0.100 A 
ATOM     20  N   UNL d   1      57.011   0.432  31.871  0.00  0.00    -0.300 N 
ATOM     21  C   UNL d   1      57.814   0.195  32.000  0.00  0.00     0.100 A 
ATOM     22  C   UNL d   1      58.297  -0.000  31.346  0.00  0.00     0.101 A 
BRANCH  20  23
ATOM     23  C   UNL d   1      56.525   0.627  32.515  0.00  0.00     0.082 C 
BRANCH  23  24
ATOM     24  C   UNL d   1      56.199   0.035  32.987  0.00  0.00     0.042 A 
ATOM     25  C   UNL d   1      56.297   0.060  33.816  0.00  0.00     0.096 A 
ATOM     26  C   UNL d   1      55.965  -0.541  34.278  0.00  0.00     0.027 A 
ATOM     27  C   UNL d   1      55.538  -1.161  33.933  0.00  0.00     0.032 A 
ATOM     28  C   UNL d   1      55.439  -1.187  33.102  0.00  0.00     0.140 A 
ATOM     29  C   UNL d   1      55.773  -0.584  32.633  0.00  0.00     0.033 A 
ATOM     30  F   UNL d   1      55.013  -1.804  32.745  0.00  0.00    -0.204 F 
BRANCH  25  31
ATOM     31  O   UNL d   1      56.717   0.670  34.164  0.00  0.00    -0.328 OA
ATOM     32  C   UNL d   1      57.092   0.558  34.900  0.00  0.00     0.181 C 
ENDBRANCH  25  31
ENDBRANCH  23  24
ENDBRANCH  20  23
ENDBRANCH   4  17
TORSDOF 4
ENDMDL
