MODEL 1
REMARK VINA RESULT:      72.8      0.000      0.000
REMARK  5 active torsions:
REMARK  status: ('A' for Active; 'I' for Inactive)
REMARK    1  A    between atoms: N_2  and  S_1 
REMARK    2  A    between atoms: C_5  and  S_1 
REMARK    3  A    between atoms: C_4  and  C_3 
REMARK       I    between atoms: N_6  and  C_4 
REMARK    4  A    between atoms: C_12  and  N_6 
REMARK    5  A    between atoms: O_23  and  C_15 
ROOT
ATOM      1  N   UNL d   1     -52.949  24.012  33.863  0.00  0.00    -0.226 N 
ATOM      2  C   UNL d   1     -53.242  23.835  34.616  0.00  0.00     0.133 A 
ATOM      3  C   UNL d   1     -53.405  23.613  33.307  0.00  0.00     0.092 A 
ATOM      4  C   UNL d   1     -53.884  23.322  34.515  0.00  0.00     0.025 A 
ATOM      5  C   UNL d   1     -53.981  23.188  33.706  0.00  0.00     0.021 A 
ENDROOT
BRANCH   2   6
ATOM      6  C   UNL d   1     -52.947  24.118  35.329  0.00  0.00     0.296 C 
ATOM      7  N   UNL d   1     -53.461  24.505  35.853  0.00  0.00    -0.207 NA
ATOM      8  O   UNL d   1     -52.153  24.021  35.522  0.00  0.00    -0.264 OA
BRANCH   7   9
ATOM      9  C   UNL d   1     -53.164  24.791  36.573  0.00  0.00     0.085 A 
ATOM     10  C   UNL d   1     -53.033  24.268  37.202  0.00  0.00     0.021 A 
ATOM     11  C   UNL d   1     -52.737  24.559  37.918  0.00  0.00     0.026 A 
ATOM     12  C   UNL d   1     -52.575  25.361  38.002  0.00  0.00     0.094 A 
ATOM     13  C   UNL d   1     -52.708  25.883  37.370  0.00  0.00     0.026 A 
ATOM     14  C   UNL d   1     -53.003  25.595  36.656  0.00  0.00     0.021 A 
BRANCH  12  15
ATOM     15  O   UNL d   1     -52.280  25.655  38.716  0.00  0.00    -0.328 OA
ATOM     16  C   UNL d   1     -51.461  25.679  38.836  0.00  0.00     0.181 C 
ENDBRANCH  12  15
ENDBRANCH   7   9
ENDBRANCH   2   6
BRANCH   1  17
ATOM     17  S   UNL d   1     -52.301  24.515  33.757  0.00  0.00     0.271 S 
ATOM     18  O   UNL d   1     -52.849  25.105  33.623  0.00  0.00    -0.200 OA
ATOM     19  O   UNL d   1     -51.750  23.904  33.896  0.00  0.00    -0.200 OA
BRANCH  17  20
ATOM     20  C   UNL d   1     -51.684  25.045  33.645  0.00  0.00     0.104 A 
ATOM     21  C   UNL d   1     -51.829  25.857  33.642  0.00  0.00     0.013 A 
ATOM     22  C   UNL d   1     -51.204  26.383  33.529  0.00  0.00     0.001 A 
ATOM     23  C   UNL d   1     -50.434  26.098  33.419  0.00  0.00     0.000 A 
ATOM     24  C   UNL d   1     -50.289  25.279  33.422  0.00  0.00     0.001 A 
ATOM     25  C   UNL d   1     -49.806  26.620  33.306  0.00  0.00     0.000 C 
ATOM     26  C   UNL d   1     -50.917  24.757  33.535  0.00  0.00     0.013 A 
ENDBRANCH  17  20
ENDBRANCH   1  17
TORSDOF 5
ENDMDL
