MODEL 1
REMARK VINA RESULT:      44.7      0.000      0.000
REMARK  7 active torsions:
REMARK  status: ('A' for Active; 'I' for Inactive)
REMARK    1  A    between atoms: C_11  and  C_3 
REMARK    2  A    between atoms: C_10  and  C_4 
REMARK    3  A    between atoms: O_16  and  C_10 
REMARK    4  A    between atoms: N_14  and  C_11 
REMARK    5  A    between atoms: C_21  and  N_14 
REMARK    6  A    between atoms: C_23  and  O_16 
REMARK    7  A    between atoms: C_20  and  C_21 
ROOT
ATOM      1  C   UNL d   1      13.930  13.214  -2.509  0.00  0.00     0.035 A 
ATOM      2  C   UNL d   1      13.741  12.503  -2.898  0.00  0.00     0.100 A 
ATOM      3  C   UNL d   1      13.804  13.928  -2.898  0.00  0.00     0.060 A 
ATOM      4  C   UNL d   1      14.224  13.043  -1.760  0.00  0.00     0.088 A 
ATOM      5  O   UNL d   1      13.930  11.873  -2.362  0.00  0.00    -0.307 OA
ATOM      6  C   UNL d   1      14.214  12.211  -1.693  0.00  0.00     0.105 A 
ATOM      7  C   UNL d   1      13.491  13.928  -3.675  0.00  0.00     0.197 A 
ATOM      8  C   UNL d   1      13.428  12.491  -3.674  0.00  0.00     0.026 A 
ATOM      9  C   UNL d   1      13.302  13.205  -4.063  0.00  0.00     0.041 A 
ATOM     10  O   UNL d   1      13.363  14.659  -4.073  0.00  0.00    -0.286 OA
ATOM     11  C   UNL d   1      14.469  11.780  -1.016  0.00  0.00     0.027 C 
ATOM     12  C   UNL d   1      13.245  11.789  -4.049  0.00  0.00     0.002 A 
ATOM     13  C   UNL d   1      12.995  13.214  -4.825  0.00  0.00     0.003 A 
ATOM     14  C   UNL d   1      12.808  12.494  -5.210  0.00  0.00     0.000 A 
ATOM     15  C   UNL d   1      12.934  11.779  -4.821  0.00  0.00     0.000 A 
ENDROOT
BRANCH   3  16
ATOM     16  C   UNL d   1      14.005  14.642  -2.478  0.00  0.00     0.102 C 
BRANCH  16  17
ATOM     17  N   UNL d   1      14.472  15.243  -2.892  0.00  0.00    -0.240 NA
BRANCH  17  18
ATOM     18  C   UNL d   1      14.276  16.048  -2.786  0.00  0.00     0.124 C 
BRANCH  18  19
ATOM     19  C   UNL d   1      14.770  16.524  -2.332  0.00  0.00     0.119 A 
ATOM     20  O   UNL d   1      14.558  16.737  -1.540  0.00  0.00    -0.304 OA
ATOM     21  C   UNL d   1      15.155  17.206  -1.243  0.00  0.00     0.123 A 
ATOM     22  C   UNL d   1      15.715  17.287  -1.814  0.00  0.00     0.029 A 
ATOM     23  C   UNL d   1      15.497  16.878  -2.482  0.00  0.00     0.028 A 
ENDBRANCH  18  19
ENDBRANCH  17  18
ENDBRANCH  16  17
ENDBRANCH   3  16
BRANCH   4  24
ATOM     24  C   UNL d   1      14.487  13.577  -1.167  0.00  0.00     0.302 C 
ATOM     25  O   UNL d   1      13.942  13.864  -0.579  0.00  0.00    -0.259 OA
BRANCH  24  26
ATOM     26  O   UNL d   1      15.273  13.835  -1.140  0.00  0.00    -0.271 OA
BRANCH  26  27
ATOM     27  C   UNL d   1      15.730  13.678  -0.475  0.00  0.00     0.126 C 
ATOM     28  C   UNL d   1      16.000  14.287  -0.015  0.00  0.00     0.029 C 
ENDBRANCH  26  27
ENDBRANCH  24  26
ENDBRANCH   4  24
TORSDOF 7
ENDMDL
