MODEL 1
REMARK VINA RESULT:      -6.1      0.000      0.000
REMARK  4 active torsions:
REMARK  status: ('A' for Active; 'I' for Inactive)
REMARK    1  A    between atoms: C_9  and  C_3 
REMARK    2  A    between atoms: C_6  and  C_10 
REMARK    3  A    between atoms: S_8  and  C_9 
REMARK    4  A    between atoms: C_10  and  S_8 
ROOT
ATOM      1  C   UNL d   1     -41.124-122.435 -51.801  0.00  0.00     0.074 C 
ENDROOT
BRANCH   1   2
ATOM      2  S   UNL d   1     -41.578-122.447 -52.490  0.00  0.00    -0.083 SA
BRANCH   2   3
ATOM      3  C   UNL d   1     -41.211-122.669 -53.195  0.00  0.00     0.035 C 
BRANCH   3   4
ATOM      4  C   UNL d   1     -41.583-122.478 -53.905  0.00  0.00     0.006 A 
ATOM      5  C   UNL d   1     -41.537-123.023 -54.526  0.00  0.00     0.001 A 
ATOM      6  C   UNL d   1     -41.133-123.738 -54.449  0.00  0.00     0.000 C 
ATOM      7  C   UNL d   1     -41.907-122.852 -55.258  0.00  0.00     0.000 A 
ATOM      8  C   UNL d   1     -42.310-122.150 -55.350  0.00  0.00     0.000 A 
ATOM      9  C   UNL d   1     -42.340-121.628 -54.719  0.00  0.00     0.000 A 
ATOM     10  C   UNL d   1     -41.969-121.801 -53.986  0.00  0.00     0.001 A 
ENDBRANCH   3   4
ENDBRANCH   2   3
ENDBRANCH   1   2
BRANCH   1  11
ATOM     11  C   UNL d   1     -41.469-122.630 -51.077  0.00  0.00     0.169 A 
ATOM     12  N   UNL d   1     -41.164-123.197 -50.555  0.00  0.00    -0.225 NA
ATOM     13  C   UNL d   1     -41.679-123.219 -49.896  0.00  0.00     0.101 A 
ATOM     14  C   UNL d   1     -42.296-122.652 -50.037  0.00  0.00     0.101 A 
ATOM     15  C   UNL d   1     -41.695-123.646 -49.205  0.00  0.00     0.021 A 
ATOM     16  N   UNL d   1     -42.142-122.299 -50.779  0.00  0.00    -0.225 NA
ATOM     17  C   UNL d   1     -42.876-122.563 -49.475  0.00  0.00     0.021 A 
ATOM     18  C   UNL d   1     -42.881-122.983 -48.810  0.00  0.00     0.002 A 
ATOM     19  C   UNL d   1     -42.263-123.550 -48.668  0.00  0.00     0.002 A 
ENDBRANCH   1  11
TORSDOF 4
ENDMDL
MODEL 2
REMARK VINA RESULT:      -5.9      0.945      4.640
REMARK  4 active torsions:
REMARK  status: ('A' for Active; 'I' for Inactive)
REMARK    1  A    between atoms: C_9  and  C_3 
REMARK    2  A    between atoms: C_6  and  C_10 
REMARK    3  A    between atoms: S_8  and  C_9 
REMARK    4  A    between atoms: C_10  and  S_8 
ROOT
ATOM      1  C   UNL d   1     -41.280-122.372 -51.918  0.00  0.00     0.074 C 
ENDROOT
BRANCH   1   2
ATOM      2  S   UNL d   1     -41.800-122.700 -51.368  0.00  0.00    -0.083 SA
BRANCH   2   3
ATOM      3  C   UNL d   1     -41.507-122.892 -50.620  0.00  0.00     0.035 C 
BRANCH   3   4
ATOM      4  C   UNL d   1     -42.030-122.885 -49.983  0.00  0.00     0.006 A 
ATOM      5  C   UNL d   1     -41.847-123.352 -49.326  0.00  0.00     0.001 A 
ATOM      6  C   UNL d   1     -41.165-123.816 -49.296  0.00  0.00     0.000 C 
ATOM      7  C   UNL d   1     -42.362-123.362 -48.665  0.00  0.00     0.000 A 
ATOM      8  C   UNL d   1     -43.039-122.909 -48.678  0.00  0.00     0.000 A 
ATOM      9  C   UNL d   1     -43.197-122.455 -49.342  0.00  0.00     0.000 A 
ATOM     10  C   UNL d   1     -42.679-122.448 -50.003  0.00  0.00     0.001 A 
ENDBRANCH   3   4
ENDBRANCH   2   3
ENDBRANCH   1   2
BRANCH   1  11
ATOM     11  C   UNL d   1     -41.475-122.371 -52.719  0.00  0.00     0.169 A 
ATOM     12  N   UNL d   1     -41.375-123.023 -53.223  0.00  0.00    -0.225 NA
ATOM     13  C   UNL d   1     -41.640-122.784 -53.980  0.00  0.00     0.101 A 
ATOM     14  C   UNL d   1     -41.899-121.977 -53.916  0.00  0.00     0.101 A 
ATOM     15  C   UNL d   1     -41.690-123.152 -54.702  0.00  0.00     0.021 A 
ATOM     16  N   UNL d   1     -41.786-121.744 -53.122  0.00  0.00    -0.225 NA
ATOM     17  C   UNL d   1     -42.186-121.609 -54.581  0.00  0.00     0.021 A 
ATOM     18  C   UNL d   1     -42.229-121.976 -55.275  0.00  0.00     0.002 A 
ATOM     19  C   UNL d   1     -41.970-122.783 -55.339  0.00  0.00     0.002 A 
ENDBRANCH   1  11
TORSDOF 4
ENDMDL
MODEL 3
REMARK VINA RESULT:      -5.1      0.997      4.801
REMARK  4 active torsions:
REMARK  status: ('A' for Active; 'I' for Inactive)
REMARK    1  A    between atoms: C_9  and  C_3 
REMARK    2  A    between atoms: C_6  and  C_10 
REMARK    3  A    between atoms: S_8  and  C_9 
REMARK    4  A    between atoms: C_10  and  S_8 
ROOT
ATOM      1  C   UNL d   1     -41.558-122.417 -51.269  0.00  0.00     0.074 C 
ENDROOT
BRANCH   1   2
ATOM      2  S   UNL d   1     -41.742-123.007 -50.723  0.00  0.00    -0.083 SA
BRANCH   2   3
ATOM      3  C   UNL d   1     -41.600-122.858 -49.924  0.00  0.00     0.035 C 
BRANCH   3   4
ATOM      4  C   UNL d   1     -42.116-123.181 -49.368  0.00  0.00     0.006 A 
ATOM      5  C   UNL d   1     -41.868-123.213 -48.581  0.00  0.00     0.001 A 
ATOM      6  C   UNL d   1     -41.128-122.933 -48.344  0.00  0.00     0.000 C 
ATOM      7  C   UNL d   1     -42.374-123.537 -47.997  0.00  0.00     0.000 A 
ATOM      8  C   UNL d   1     -43.108-123.817 -48.213  0.00  0.00     0.000 A 
ATOM      9  C   UNL d   1     -43.329-123.774 -49.001  0.00  0.00     0.000 A 
ATOM     10  C   UNL d   1     -42.820-123.449 -49.584  0.00  0.00     0.001 A 
ENDBRANCH   3   4
ENDBRANCH   2   3
ENDBRANCH   1   2
BRANCH   1  11
ATOM     11  C   UNL d   1     -41.503-122.601 -52.072  0.00  0.00     0.169 A 
ATOM     12  N   UNL d   1     -41.533-122.038 -52.681  0.00  0.00    -0.225 NA
ATOM     13  C   UNL d   1     -41.457-122.459 -53.400  0.00  0.00     0.101 A 
ATOM     14  C   UNL d   1     -41.381-123.283 -53.205  0.00  0.00     0.101 A 
ATOM     15  C   UNL d   1     -41.443-122.242 -54.183  0.00  0.00     0.021 A 
ATOM     16  N   UNL d   1     -41.412-123.344 -52.373  0.00  0.00    -0.225 NA
ATOM     17  C   UNL d   1     -41.298-123.817 -53.811  0.00  0.00     0.021 A 
ATOM     18  C   UNL d   1     -41.286-123.594 -54.566  0.00  0.00     0.002 A 
ATOM     19  C   UNL d   1     -41.362-122.770 -54.760  0.00  0.00     0.002 A 
ENDBRANCH   1  11
TORSDOF 4
ENDMDL
