MODEL 1
REMARK VINA RESULT:      -7.8      0.000      0.000
REMARK  6 active torsions:
REMARK  status: ('A' for Active; 'I' for Inactive)
REMARK    1  A    between atoms: C_11  and  N_3 
REMARK    2  A    between atoms: C_10  and  C_4 
REMARK    3  A    between atoms: C_18  and  C_11 
REMARK    4  A    between atoms: O_21  and  C_13 
REMARK    5  A    between atoms: O_22  and  C_15 
REMARK    6  A    between atoms: C_23  and  C_18 
ROOT
ATOM      1  N   UNL d   1     -47.478  13.486  22.941  0.00  0.00    -0.122 N 
ATOM      2  C   UNL d   1     -46.663  13.467  22.800  0.00  0.00     0.741 A 
ATOM      3  N   UNL d   1     -46.237  12.756  22.914  0.00  0.00    -0.103 N 
ATOM      4  C   UNL d   1     -47.751  14.253  22.785  0.00  0.00     0.185 A 
ATOM      5  C   UNL d   1     -46.631  12.073  23.166  0.00  0.00     0.280 A 
ATOM      6  N   UNL d   1     -46.427  14.217  22.558  0.00  0.00     0.045 NA
ATOM      7  C   UNL d   1     -47.875  12.803  23.195  0.00  0.00     0.087 A 
ATOM      8  N   UNL d   1     -47.101  14.709  22.547  0.00  0.00    -0.114 NA
ATOM      9  C   UNL d   1     -47.448  12.105  23.304  0.00  0.00     0.074 A 
ATOM     10  O   UNL d   1     -46.210  11.372  23.278  0.00  0.00    -0.266 OA
ATOM     11  C   UNL d   1     -47.846  11.422  23.558  0.00  0.00     0.006 A 
ATOM     12  C   UNL d   1     -48.687  12.824  23.334  0.00  0.00     0.018 A 
ATOM     13  C   UNL d   1     -48.656  11.443  23.697  0.00  0.00     0.000 A 
ATOM     14  C   UNL d   1     -49.077  12.144  23.586  0.00  0.00     0.002 A 
ENDROOT
BRANCH   4  15
ATOM     15  C   UNL d   1     -48.531  14.518  22.854  0.00  0.00     0.039 A 
ATOM     16  C   UNL d   1     -49.028  14.494  22.210  0.00  0.00     0.029 A 
ATOM     17  C   UNL d   1     -49.805  14.757  22.276  0.00  0.00     0.116 A 
ATOM     18  C   UNL d   1     -50.082  15.048  23.005  0.00  0.00     0.116 A 
ATOM     19  C   UNL d   1     -49.575  15.072  23.656  0.00  0.00     0.026 A 
ATOM     20  C   UNL d   1     -48.795  14.806  23.586  0.00  0.00     0.005 A 
BRANCH  17  21
ATOM     21  O   UNL d   1     -50.300  14.731  21.629  0.00  0.00    -0.326 OA
ATOM     22  C   UNL d   1     -50.644  14.016  21.394  0.00  0.00     0.181 C 
ENDBRANCH  17  21
BRANCH  18  23
ATOM     23  O   UNL d   1     -50.859  15.311  23.070  0.00  0.00    -0.326 OA
ATOM     24  C   UNL d   1     -51.060  15.851  23.664  0.00  0.00     0.181 C 
ENDBRANCH  18  23
ENDBRANCH   4  15
BRANCH   3  25
ATOM     25  C   UNL d   1     -45.425  12.734  22.774  0.00  0.00     0.101 C 
BRANCH  25  26
ATOM     26  C   UNL d   1     -45.142  12.754  21.999  0.00  0.00     0.020 C 
BRANCH  26  27
ATOM     27  C   UNL d   1     -44.330  12.680  21.845  0.00  0.00     0.002 A 
ATOM     28  C   UNL d   1     -43.959  13.204  21.327  0.00  0.00     0.000 A 
ATOM     29  C   UNL d   1     -43.165  13.129  21.180  0.00  0.00     0.000 A 
ATOM     30  C   UNL d   1     -42.741  12.540  21.541  0.00  0.00     0.000 A 
ATOM     31  C   UNL d   1     -43.102  12.014  22.058  0.00  0.00     0.000 A 
ATOM     32  C   UNL d   1     -43.906  12.092  22.207  0.00  0.00     0.000 A 
ENDBRANCH  26  27
ENDBRANCH  25  26
ENDBRANCH   3  25
TORSDOF 6
ENDMDL
MODEL 2
REMARK VINA RESULT:      -7.8      1.693      2.526
REMARK  6 active torsions:
REMARK  status: ('A' for Active; 'I' for Inactive)
REMARK    1  A    between atoms: C_11  and  N_3 
REMARK    2  A    between atoms: C_10  and  C_4 
REMARK    3  A    between atoms: C_18  and  C_11 
REMARK    4  A    between atoms: O_21  and  C_13 
REMARK    5  A    between atoms: O_22  and  C_15 
REMARK    6  A    between atoms: C_23  and  C_18 
ROOT
ATOM      1  N   UNL d   1     -47.647  12.646  22.738  0.00  0.00    -0.122 N 
ATOM      2  C   UNL d   1     -47.116  12.078  23.023  0.00  0.00     0.741 A 
ATOM      3  N   UNL d   1     -46.348  12.307  23.261  0.00  0.00    -0.103 N 
ATOM      4  C   UNL d   1     -48.358  12.265  22.545  0.00  0.00     0.185 A 
ATOM      5  C   UNL d   1     -46.119  13.101  23.211  0.00  0.00     0.280 A 
ATOM      6  N   UNL d   1     -47.492  11.346  23.009  0.00  0.00     0.045 NA
ATOM      7  C   UNL d   1     -47.419  13.442  22.687  0.00  0.00     0.087 A 
ATOM      8  N   UNL d   1     -48.265  11.457  22.713  0.00  0.00    -0.114 NA
ATOM      9  C   UNL d   1     -46.660  13.661  22.924  0.00  0.00     0.074 A 
ATOM     10  O   UNL d   1     -45.361  13.327  23.446  0.00  0.00    -0.266 OA
ATOM     11  C   UNL d   1     -46.433  14.458  22.873  0.00  0.00     0.006 A 
ATOM     12  C   UNL d   1     -47.949  14.006  22.403  0.00  0.00     0.018 A 
ATOM     13  C   UNL d   1     -46.962  15.021  22.590  0.00  0.00     0.000 A 
ATOM     14  C   UNL d   1     -47.720  14.795  22.354  0.00  0.00     0.002 A 
ENDROOT
BRANCH   4  15
ATOM     15  C   UNL d   1     -49.037  12.623  22.241  0.00  0.00     0.039 A 
ATOM     16  C   UNL d   1     -49.690  12.726  22.717  0.00  0.00     0.029 A 
ATOM     17  C   UNL d   1     -50.368  13.082  22.416  0.00  0.00     0.116 A 
ATOM     18  C   UNL d   1     -50.385  13.337  21.624  0.00  0.00     0.116 A 
ATOM     19  C   UNL d   1     -49.721  13.230  21.145  0.00  0.00     0.026 A 
ATOM     20  C   UNL d   1     -49.041  12.872  21.450  0.00  0.00     0.005 A 
BRANCH  17  21
ATOM     21  O   UNL d   1     -51.021  13.185  22.895  0.00  0.00    -0.326 OA
ATOM     22  C   UNL d   1     -50.985  12.987  23.698  0.00  0.00     0.181 C 
ENDBRANCH  17  21
BRANCH  18  23
ATOM     23  O   UNL d   1     -51.064  13.693  21.325  0.00  0.00    -0.326 OA
ATOM     24  C   UNL d   1     -51.003  14.223  20.692  0.00  0.00     0.181 C 
ENDBRANCH  18  23
ENDBRANCH   4  15
BRANCH   3  25
ATOM     25  C   UNL d   1     -45.818  11.744  23.545  0.00  0.00     0.101 C 
BRANCH  25  26
ATOM     26  C   UNL d   1     -45.494  11.189  23.027  0.00  0.00     0.020 C 
BRANCH  26  27
ATOM     27  C   UNL d   1     -44.832  10.741  23.251  0.00  0.00     0.002 A 
ATOM     28  C   UNL d   1     -44.082  11.083  23.245  0.00  0.00     0.000 A 
ATOM     29  C   UNL d   1     -43.437  10.641  23.465  0.00  0.00     0.000 A 
ATOM     30  C   UNL d   1     -43.534   9.868  23.689  0.00  0.00     0.000 A 
ATOM     31  C   UNL d   1     -44.278   9.520  23.698  0.00  0.00     0.000 A 
ATOM     32  C   UNL d   1     -44.929   9.969  23.475  0.00  0.00     0.000 A 
ENDBRANCH  26  27
ENDBRANCH  25  26
ENDBRANCH   3  25
TORSDOF 6
ENDMDL
MODEL 3
REMARK VINA RESULT:      -6.2      5.625      9.384
REMARK  6 active torsions:
REMARK  status: ('A' for Active; 'I' for Inactive)
REMARK    1  A    between atoms: C_11  and  N_3 
REMARK    2  A    between atoms: C_10  and  C_4 
REMARK    3  A    between atoms: C_18  and  C_11 
REMARK    4  A    between atoms: O_21  and  C_13 
REMARK    5  A    between atoms: O_22  and  C_15 
REMARK    6  A    between atoms: C_23  and  C_18 
ROOT
ATOM      1  N   UNL d   1     -40.193  14.674  18.972  0.00  0.00    -0.122 N 
ATOM      2  C   UNL d   1     -40.883  14.416  19.348  0.00  0.00     0.741 A 
ATOM      3  N   UNL d   1     -41.000  14.576  20.161  0.00  0.00    -0.103 N 
ATOM      4  C   UNL d   1     -40.226  14.440  18.177  0.00  0.00     0.185 A 
ATOM      5  C   UNL d   1     -40.426  14.993  20.587  0.00  0.00     0.280 A 
ATOM      6  N   UNL d   1     -41.346  14.021  18.793  0.00  0.00     0.045 NA
ATOM      7  C   UNL d   1     -39.616  15.093  19.398  0.00  0.00     0.087 A 
ATOM      8  N   UNL d   1     -40.941  14.034  18.064  0.00  0.00    -0.114 NA
ATOM      9  C   UNL d   1     -39.739  15.247  20.199  0.00  0.00     0.074 A 
ATOM     10  O   UNL d   1     -40.542  15.151  21.388  0.00  0.00    -0.266 OA
ATOM     11  C   UNL d   1     -39.161  15.666  20.624  0.00  0.00     0.006 A 
ATOM     12  C   UNL d   1     -38.930  15.349  19.021  0.00  0.00     0.018 A 
ATOM     13  C   UNL d   1     -38.476  15.922  20.248  0.00  0.00     0.000 A 
ATOM     14  C   UNL d   1     -38.360  15.764  19.446  0.00  0.00     0.002 A 
ENDROOT
BRANCH   4  15
ATOM     15  C   UNL d   1     -39.652  14.583  17.601  0.00  0.00     0.039 A 
ATOM     16  C   UNL d   1     -39.099  14.012  17.426  0.00  0.00     0.029 A 
ATOM     17  C   UNL d   1     -38.526  14.152  16.852  0.00  0.00     0.116 A 
ATOM     18  C   UNL d   1     -38.513  14.880  16.451  0.00  0.00     0.116 A 
ATOM     19  C   UNL d   1     -39.075  15.458  16.631  0.00  0.00     0.026 A 
ATOM     20  C   UNL d   1     -39.650  15.314  17.208  0.00  0.00     0.005 A 
BRANCH  17  21
ATOM     21  O   UNL d   1     -37.974  13.577  16.679  0.00  0.00    -0.326 OA
ATOM     22  C   UNL d   1     -38.060  12.811  16.979  0.00  0.00     0.181 C 
ENDBRANCH  17  21
BRANCH  18  23
ATOM     23  O   UNL d   1     -37.940  15.020  15.877  0.00  0.00    -0.326 OA
ATOM     24  C   UNL d   1     -38.052  15.626  15.325  0.00  0.00     0.181 C 
ENDBRANCH  18  23
ENDBRANCH   4  15
BRANCH   3  25
ATOM     25  C   UNL d   1     -41.686  14.320  20.538  0.00  0.00     0.101 C 
BRANCH  25  26
ATOM     26  C   UNL d   1     -41.663  13.651  21.020  0.00  0.00     0.020 C 
BRANCH  26  27
ATOM     27  C   UNL d   1     -42.366  13.287  21.270  0.00  0.00     0.002 A 
ATOM     28  C   UNL d   1     -42.346  12.527  21.591  0.00  0.00     0.000 A 
ATOM     29  C   UNL d   1     -43.035  12.175  21.834  0.00  0.00     0.000 A 
ATOM     30  C   UNL d   1     -43.739  12.571  21.761  0.00  0.00     0.000 A 
ATOM     31  C   UNL d   1     -43.768  13.327  21.443  0.00  0.00     0.000 A 
ATOM     32  C   UNL d   1     -43.069  13.683  21.197  0.00  0.00     0.000 A 
ENDBRANCH  26  27
ENDBRANCH  25  26
ENDBRANCH   3  25
TORSDOF 6
ENDMDL
MODEL 4
REMARK VINA RESULT:      -5.8      0.900      1.551
REMARK  6 active torsions:
REMARK  status: ('A' for Active; 'I' for Inactive)
REMARK    1  A    between atoms: C_11  and  N_3 
REMARK    2  A    between atoms: C_10  and  C_4 
REMARK    3  A    between atoms: C_18  and  C_11 
REMARK    4  A    between atoms: O_21  and  C_13 
REMARK    5  A    between atoms: O_22  and  C_15 
REMARK    6  A    between atoms: C_23  and  C_18 
ROOT
ATOM      1  N   UNL d   1     -46.715  13.067  22.623  0.00  0.00    -0.122 N 
ATOM      2  C   UNL d   1     -45.931  13.278  22.459  0.00  0.00     0.741 A 
ATOM      3  N   UNL d   1     -45.308  12.754  22.654  0.00  0.00    -0.103 N 
ATOM      4  C   UNL d   1     -47.208  13.684  22.373  0.00  0.00     0.185 A 
ATOM      5  C   UNL d   1     -45.477  12.027  23.010  0.00  0.00     0.280 A 
ATOM      6  N   UNL d   1     -45.934  14.023  22.108  0.00  0.00     0.045 NA
ATOM      7  C   UNL d   1     -46.885  12.338  22.980  0.00  0.00     0.087 A 
ATOM      8  N   UNL d   1     -46.726  14.279  22.053  0.00  0.00    -0.114 NA
ATOM      9  C   UNL d   1     -46.265  11.827  23.170  0.00  0.00     0.074 A 
ATOM     10  O   UNL d   1     -44.862  11.511  23.203  0.00  0.00    -0.266 OA
ATOM     11  C   UNL d   1     -46.437  11.097  23.528  0.00  0.00     0.006 A 
ATOM     12  C   UNL d   1     -47.665  12.129  23.143  0.00  0.00     0.018 A 
ATOM     13  C   UNL d   1     -47.216  10.889  23.690  0.00  0.00     0.000 A 
ATOM     14  C   UNL d   1     -47.830  11.405  23.497  0.00  0.00     0.002 A 
ENDROOT
BRANCH   4  15
ATOM     15  C   UNL d   1     -48.032  13.705  22.431  0.00  0.00     0.039 A 
ATOM     16  C   UNL d   1     -48.388  14.143  23.018  0.00  0.00     0.029 A 
ATOM     17  C   UNL d   1     -49.209  14.165  23.077  0.00  0.00     0.116 A 
ATOM     18  C   UNL d   1     -49.674  13.739  22.536  0.00  0.00     0.116 A 
ATOM     19  C   UNL d   1     -49.310  13.296  21.942  0.00  0.00     0.026 A 
ATOM     20  C   UNL d   1     -48.485  13.276  21.884  0.00  0.00     0.005 A 
BRANCH  17  21
ATOM     21  O   UNL d   1     -49.562  14.605  23.667  0.00  0.00    -0.326 OA
ATOM     22  C   UNL d   1     -49.455  15.425  23.697  0.00  0.00     0.181 C 
ENDBRANCH  17  21
BRANCH  18  23
ATOM     23  O   UNL d   1     -50.494  13.762  22.597  0.00  0.00    -0.326 OA
ATOM     24  C   UNL d   1     -50.957  13.331  22.063  0.00  0.00     0.181 C 
ENDBRANCH  18  23
ENDBRANCH   4  15
BRANCH   3  25
ATOM     25  C   UNL d   1     -44.528  12.962  22.491  0.00  0.00     0.101 C 
BRANCH  25  26
ATOM     26  C   UNL d   1     -44.208  12.802  21.748  0.00  0.00     0.020 C 
BRANCH  26  27
ATOM     27  C   UNL d   1     -43.423  13.008  21.575  0.00  0.00     0.002 A 
ATOM     28  C   UNL d   1     -42.866  12.418  21.423  0.00  0.00     0.000 A 
ATOM     29  C   UNL d   1     -42.099  12.623  21.254  0.00  0.00     0.000 A 
ATOM     30  C   UNL d   1     -41.884  13.404  21.235  0.00  0.00     0.000 A 
ATOM     31  C   UNL d   1     -42.432  13.998  21.385  0.00  0.00     0.000 A 
ATOM     32  C   UNL d   1     -43.208  13.789  21.556  0.00  0.00     0.000 A 
ENDBRANCH  26  27
ENDBRANCH  25  26
ENDBRANCH   3  25
TORSDOF 6
ENDMDL
MODEL 5
REMARK VINA RESULT:      -5.6      1.441      2.348
REMARK  6 active torsions:
REMARK  status: ('A' for Active; 'I' for Inactive)
REMARK    1  A    between atoms: C_11  and  N_3 
REMARK    2  A    between atoms: C_10  and  C_4 
REMARK    3  A    between atoms: C_18  and  C_11 
REMARK    4  A    between atoms: O_21  and  C_13 
REMARK    5  A    between atoms: O_22  and  C_15 
REMARK    6  A    between atoms: C_23  and  C_18 
ROOT
ATOM      1  N   UNL d   1     -47.057  12.919  22.679  0.00  0.00    -0.122 N 
ATOM      2  C   UNL d   1     -46.253  12.735  22.604  0.00  0.00     0.741 A 
ATOM      3  N   UNL d   1     -45.688  13.349  22.541  0.00  0.00    -0.103 N 
ATOM      4  C   UNL d   1     -47.483  12.210  22.729  0.00  0.00     0.185 A 
ATOM      5  C   UNL d   1     -45.934  14.140  22.554  0.00  0.00     0.280 A 
ATOM      6  N   UNL d   1     -46.177  11.915  22.609  0.00  0.00     0.045 NA
ATOM      7  C   UNL d   1     -47.304  13.712  22.691  0.00  0.00     0.087 A 
ATOM      8  N   UNL d   1     -46.939  11.585  22.686  0.00  0.00    -0.114 NA
ATOM      9  C   UNL d   1     -46.741  14.311  22.629  0.00  0.00     0.074 A 
ATOM     10  O   UNL d   1     -45.376  14.745  22.492  0.00  0.00    -0.266 OA
ATOM     11  C   UNL d   1     -46.990  15.104  22.641  0.00  0.00     0.006 A 
ATOM     12  C   UNL d   1     -48.105  13.893  22.765  0.00  0.00     0.018 A 
ATOM     13  C   UNL d   1     -47.789  15.285  22.715  0.00  0.00     0.000 A 
ATOM     14  C   UNL d   1     -48.346  14.680  22.777  0.00  0.00     0.002 A 
ENDROOT
BRANCH   4  15
ATOM     15  C   UNL d   1     -48.302  12.137  22.809  0.00  0.00     0.039 A 
ATOM     16  C   UNL d   1     -48.773  12.088  22.146  0.00  0.00     0.029 A 
ATOM     17  C   UNL d   1     -49.589  12.015  22.223  0.00  0.00     0.116 A 
ATOM     18  C   UNL d   1     -49.932  11.991  22.980  0.00  0.00     0.116 A 
ATOM     19  C   UNL d   1     -49.452  12.041  23.650  0.00  0.00     0.026 A 
ATOM     20  C   UNL d   1     -48.632  12.115  23.570  0.00  0.00     0.005 A 
BRANCH  17  21
ATOM     21  O   UNL d   1     -50.057  11.965  21.557  0.00  0.00    -0.326 OA
ATOM     22  C   UNL d   1     -50.230  12.644  21.117  0.00  0.00     0.181 C 
ENDBRANCH  17  21
BRANCH  18  23
ATOM     23  O   UNL d   1     -50.748  11.918  23.056  0.00  0.00    -0.326 OA
ATOM     24  C   UNL d   1     -51.064  11.499  23.696  0.00  0.00     0.181 C 
ENDBRANCH  18  23
ENDBRANCH   4  15
BRANCH   3  25
ATOM     25  C   UNL d   1     -44.888  13.168  22.467  0.00  0.00     0.101 C 
BRANCH  25  26
ATOM     26  C   UNL d   1     -44.583  12.954  21.731  0.00  0.00     0.020 C 
BRANCH  26  27
ATOM     27  C   UNL d   1     -43.763  12.895  21.616  0.00  0.00     0.002 A 
ATOM     28  C   UNL d   1     -43.377  13.429  21.119  0.00  0.00     0.000 A 
ATOM     29  C   UNL d   1     -42.576  13.368  21.009  0.00  0.00     0.000 A 
ATOM     30  C   UNL d   1     -42.159  12.785  21.387  0.00  0.00     0.000 A 
ATOM     31  C   UNL d   1     -42.535  12.249  21.884  0.00  0.00     0.000 A 
ATOM     32  C   UNL d   1     -43.347  12.312  21.994  0.00  0.00     0.000 A 
ENDBRANCH  26  27
ENDBRANCH  25  26
ENDBRANCH   3  25
TORSDOF 6
ENDMDL
