MODEL 1
REMARK VINA RESULT:      54.5      0.000      0.000
REMARK  8 active torsions:
REMARK  status: ('A' for Active; 'I' for Inactive)
REMARK    1  A    between atoms: C_3  and  N_1 
REMARK    2  A    between atoms: C_6  and  N_2 
REMARK    3  A    between atoms: C_4  and  C_3 
REMARK    4  A    between atoms: C_7  and  C_3 
REMARK       I    between atoms: C_5  and  N_8 
REMARK    5  A    between atoms: O_18  and  C_5 
REMARK    6  A    between atoms: N_8  and  C_7 
REMARK    7  A    between atoms: C_21  and  O_18 
REMARK    8  A    between atoms: C_22  and  C_21 
ROOT
ATOM      1  C   UNL d   1      45.617 -18.483  41.410  0.00  0.00     0.107 C 
ENDROOT
BRANCH   1   2
ATOM      2  N   UNL d   1      45.678 -17.859  41.956  0.00  0.00    -0.298 N 
ATOM      3  C   UNL d   1      45.022 -17.657  42.414  0.00  0.00     0.100 A 
ATOM      4  C   UNL d   1      45.071 -17.039  42.959  0.00  0.00     0.100 A 
ATOM      5  N   UNL d   1      45.779 -16.624  43.047  0.00  0.00    -0.299 N 
ATOM      6  C   UNL d   1      46.432 -16.828  42.590  0.00  0.00     0.100 A 
ATOM      7  C   UNL d   1      46.386 -17.443  42.045  0.00  0.00     0.100 A 
BRANCH   5   8
ATOM      8  C   UNL d   1      45.827 -16.011  43.589  0.00  0.00     0.092 A 
ATOM      9  C   UNL d   1      45.730 -16.157  44.393  0.00  0.00     0.156 A 
ATOM     10  F   UNL d   1      45.583 -16.926  44.654  0.00  0.00    -0.203 F 
ATOM     11  C   UNL d   1      45.778 -15.543  44.939  0.00  0.00     0.031 A 
ATOM     12  C   UNL d   1      45.925 -14.774  44.678  0.00  0.00     0.002 A 
ATOM     13  C   UNL d   1      46.023 -14.625  43.868  0.00  0.00     0.002 A 
ATOM     14  C   UNL d   1      45.973 -15.242  43.328  0.00  0.00     0.020 A 
ENDBRANCH   5   8
ENDBRANCH   1   2
BRANCH   1  15
ATOM     15  C   UNL d   1      45.984 -19.207  41.558  0.00  0.00     0.118 A 
ATOM     16  O   UNL d   1      46.325 -19.634  40.943  0.00  0.00    -0.304 OA
ATOM     17  C   UNL d   1      46.647 -20.330  41.261  0.00  0.00     0.123 A 
ATOM     18  C   UNL d   1      46.502 -20.328  42.064  0.00  0.00     0.029 A 
ATOM     19  C   UNL d   1      46.096 -19.642  42.251  0.00  0.00     0.028 A 
ENDBRANCH   1  15
BRANCH   1  20
ATOM     20  C   UNL d   1      45.181 -18.374  40.708  0.00  0.00     0.124 C 
BRANCH  20  21
ATOM     21  N   UNL d   1      45.469 -17.877  40.116  0.00  0.00    -0.183 NA
ATOM     22  C   UNL d   1      44.958 -17.573  39.548  0.00  0.00     0.392 C 
ATOM     23  O   UNL d   1      44.161 -17.760  39.565  0.00  0.00    -0.236 OA
BRANCH  22  24
ATOM     24  O   UNL d   1      45.251 -17.076  38.958  0.00  0.00    -0.256 OA
BRANCH  24  25
ATOM     25  C   UNL d   1      45.046 -17.202  38.172  0.00  0.00     0.128 C 
BRANCH  25  26
ATOM     26  C   UNL d   1      44.912 -16.561  37.671  0.00  0.00     0.025 A 
ATOM     27  C   UNL d   1      44.141 -16.356  37.460  0.00  0.00     0.002 A 
ATOM     28  C   UNL d   1      44.008 -15.715  36.958  0.00  0.00     0.000 A 
ATOM     29  C   UNL d   1      44.646 -15.278  36.668  0.00  0.00     0.000 A 
ATOM     30  C   UNL d   1      45.408 -15.485  36.880  0.00  0.00     0.000 A 
ATOM     31  C   UNL d   1      45.550 -16.125  37.381  0.00  0.00     0.002 A 
ENDBRANCH  25  26
ENDBRANCH  24  25
ENDBRANCH  22  24
ENDBRANCH  20  21
ENDBRANCH   1  20
TORSDOF 8
ENDMDL
MODEL 2
REMARK VINA RESULT:      57.0      1.730      5.012
REMARK  8 active torsions:
REMARK  status: ('A' for Active; 'I' for Inactive)
REMARK    1  A    between atoms: C_3  and  N_1 
REMARK    2  A    between atoms: C_6  and  N_2 
REMARK    3  A    between atoms: C_4  and  C_3 
REMARK    4  A    between atoms: C_7  and  C_3 
REMARK       I    between atoms: C_5  and  N_8 
REMARK    5  A    between atoms: O_18  and  C_5 
REMARK    6  A    between atoms: N_8  and  C_7 
REMARK    7  A    between atoms: C_21  and  O_18 
REMARK    8  A    between atoms: C_22  and  C_21 
ROOT
ATOM      1  C   UNL d   1      46.343 -18.226  41.760  0.00  0.00     0.107 C 
ENDROOT
BRANCH   1   2
ATOM      2  N   UNL d   1      46.068 -17.892  41.048  0.00  0.00    -0.298 N 
ATOM      3  C   UNL d   1      46.587 -17.452  40.582  0.00  0.00     0.100 A 
ATOM      4  C   UNL d   1      46.325 -17.117  39.875  0.00  0.00     0.100 A 
ATOM      5  N   UNL d   1      45.543 -17.223  39.634  0.00  0.00    -0.299 N 
ATOM      6  C   UNL d   1      45.028 -17.663  40.101  0.00  0.00     0.100 A 
ATOM      7  C   UNL d   1      45.286 -17.998  40.807  0.00  0.00     0.100 A 
BRANCH   5   8
ATOM      8  C   UNL d   1      45.284 -16.890  38.932  0.00  0.00     0.092 A 
ATOM      9  C   UNL d   1      44.700 -17.261  38.485  0.00  0.00     0.156 A 
ATOM     10  F   UNL d   1      44.374 -17.972  38.748  0.00  0.00    -0.203 F 
ATOM     11  C   UNL d   1      44.438 -16.928  37.779  0.00  0.00     0.031 A 
ATOM     12  C   UNL d   1      44.763 -16.217  37.517  0.00  0.00     0.002 A 
ATOM     13  C   UNL d   1      45.352 -15.842  37.965  0.00  0.00     0.002 A 
ATOM     14  C   UNL d   1      45.609 -16.179  38.669  0.00  0.00     0.020 A 
ENDBRANCH   5   8
ENDBRANCH   1   2
BRANCH   1  15
ATOM     15  C   UNL d   1      46.317 -19.042  41.878  0.00  0.00     0.118 A 
ATOM     16  O   UNL d   1      46.632 -19.554  41.316  0.00  0.00    -0.304 OA
ATOM     17  C   UNL d   1      46.525 -20.330  41.588  0.00  0.00     0.123 A 
ATOM     18  C   UNL d   1      46.147 -20.293  42.309  0.00  0.00     0.029 A 
ATOM     19  C   UNL d   1      46.017 -19.506  42.492  0.00  0.00     0.028 A 
ENDBRANCH   1  15
BRANCH   1  20
ATOM     20  C   UNL d   1      46.646 -17.729  42.356  0.00  0.00     0.124 C 
BRANCH  20  21
ATOM     21  N   UNL d   1      46.170 -17.140  42.684  0.00  0.00    -0.183 NA
ATOM     22  C   UNL d   1      46.159 -17.026  43.499  0.00  0.00     0.392 C 
ATOM     23  O   UNL d   1      46.618 -17.494  43.990  0.00  0.00    -0.236 OA
BRANCH  22  24
ATOM     24  O   UNL d   1      45.681 -16.436  43.823  0.00  0.00    -0.256 OA
BRANCH  24  25
ATOM     25  C   UNL d   1      45.985 -15.684  43.951  0.00  0.00     0.128 C 
BRANCH  25  26
ATOM     26  C   UNL d   1      45.505 -15.092  44.268  0.00  0.00     0.025 A 
ATOM     27  C   UNL d   1      45.747 -14.303  44.233  0.00  0.00     0.002 A 
ATOM     28  C   UNL d   1      45.267 -13.711  44.550  0.00  0.00     0.000 A 
ATOM     29  C   UNL d   1      44.546 -13.908  44.901  0.00  0.00     0.000 A 
ATOM     30  C   UNL d   1      44.311 -14.691  44.933  0.00  0.00     0.000 A 
ATOM     31  C   UNL d   1      44.785 -15.289  44.619  0.00  0.00     0.002 A 
ENDBRANCH  25  26
ENDBRANCH  24  25
ENDBRANCH  22  24
ENDBRANCH  20  21
ENDBRANCH   1  20
TORSDOF 8
ENDMDL
