MODEL 1
REMARK VINA RESULT:      -7.1      0.000      0.000
REMARK  6 active torsions:
REMARK  status: ('A' for Active; 'I' for Inactive)
REMARK    1  A    between atoms: N_2  and  S_1 
REMARK    2  A    between atoms: C_4  and  S_1 
REMARK    3  A    between atoms: C_5  and  N_3 
REMARK    4  A    between atoms: C_10  and  C_4 
REMARK    5  A    between atoms: C_14  and  C_10 
REMARK    6  A    between atoms: O_15  and  C_13 
ROOT
ATOM      1  N   UNL d   1     -47.317  13.284  22.997  0.00  0.00    -0.226 N 
ATOM      2  N   UNL d   1     -48.728  14.153  23.000  0.00  0.00    -0.300 N 
ATOM      3  C   UNL d   1     -48.026  12.932  23.260  0.00  0.00     0.111 A 
ATOM      4  C   UNL d   1     -47.326  14.053  22.744  0.00  0.00     0.111 A 
ATOM      5  C   UNL d   1     -48.016  14.490  22.742  0.00  0.00     0.100 A 
ATOM      6  C   UNL d   1     -48.716  13.369  23.258  0.00  0.00     0.100 A 
ENDROOT
BRANCH   1   7
ATOM      7  S   UNL d   1     -46.609  12.847  22.996  0.00  0.00     0.272 S 
ATOM      8  O   UNL d   1     -46.312  13.333  23.623  0.00  0.00    -0.200 OA
ATOM      9  O   UNL d   1     -46.898  12.380  22.391  0.00  0.00    -0.200 OA
BRANCH   7  10
ATOM     10  C   UNL d   1     -45.910  12.424  23.003  0.00  0.00     0.116 C 
BRANCH  10  11
ATOM     11  C   UNL d   1     -45.896  11.649  23.319  0.00  0.00     0.014 C 
BRANCH  11  12
ATOM     12  C   UNL d   1     -45.173  11.192  23.326  0.00  0.00     0.001 A 
ATOM     13  C   UNL d   1     -45.158  10.431  23.690  0.00  0.00     0.000 A 
ATOM     14  C   UNL d   1     -44.454  10.001  23.690  0.00  0.00     0.000 A 
ATOM     15  C   UNL d   1     -43.780  10.299  23.346  0.00  0.00     0.000 A 
ATOM     16  C   UNL d   1     -43.809  11.058  22.988  0.00  0.00     0.000 A 
ATOM     17  C   UNL d   1     -44.503  11.505  22.977  0.00  0.00     0.000 A 
ENDBRANCH  11  12
ENDBRANCH  10  11
ENDBRANCH   7  10
ENDBRANCH   1   7
BRANCH   2  18
ATOM     18  C   UNL d   1     -49.429  14.574  23.006  0.00  0.00     0.086 A 
ATOM     19  C   UNL d   1     -50.016  14.414  22.419  0.00  0.00     0.110 A 
ATOM     20  C   UNL d   1     -50.728  14.838  22.422  0.00  0.00     0.026 A 
ATOM     21  C   UNL d   1     -50.872  15.434  23.010  0.00  0.00     0.002 A 
ATOM     22  C   UNL d   1     -50.286  15.573  23.572  0.00  0.00     0.002 A 
ATOM     23  C   UNL d   1     -49.568  15.139  23.563  0.00  0.00     0.019 A 
BRANCH  19  24
ATOM     24  O   UNL d   1     -49.879  13.839  21.849  0.00  0.00    -0.327 OA
ATOM     25  C   UNL d   1     -50.474  13.607  21.328  0.00  0.00     0.181 C 
ENDBRANCH  19  24
ENDBRANCH   2  18
TORSDOF 6
ENDMDL
MODEL 2
REMARK VINA RESULT:      -6.0      1.594      2.154
REMARK  6 active torsions:
REMARK  status: ('A' for Active; 'I' for Inactive)
REMARK    1  A    between atoms: N_2  and  S_1 
REMARK    2  A    between atoms: C_4  and  S_1 
REMARK    3  A    between atoms: C_5  and  N_3 
REMARK    4  A    between atoms: C_10  and  C_4 
REMARK    5  A    between atoms: C_14  and  C_10 
REMARK    6  A    between atoms: O_15  and  C_13 
ROOT
ATOM      1  N   UNL d   1     -47.012  12.917  22.795  0.00  0.00    -0.226 N 
ATOM      2  N   UNL d   1     -48.631  12.744  23.106  0.00  0.00    -0.300 N 
ATOM      3  C   UNL d   1     -47.271  12.691  23.555  0.00  0.00     0.111 A 
ATOM      4  C   UNL d   1     -47.559  13.051  22.213  0.00  0.00     0.111 A 
ATOM      5  C   UNL d   1     -48.359  12.968  22.356  0.00  0.00     0.100 A 
ATOM      6  C   UNL d   1     -48.071  12.608  23.698  0.00  0.00     0.100 A 
ENDROOT
BRANCH   1   7
ATOM      7  S   UNL d   1     -46.200  13.004  22.640  0.00  0.00     0.272 S 
ATOM      8  O   UNL d   1     -46.021  12.611  23.369  0.00  0.00    -0.200 OA
ATOM      9  O   UNL d   1     -46.375  13.382  21.937  0.00  0.00    -0.200 OA
BRANCH   7  10
ATOM     10  C   UNL d   1     -45.399  13.084  22.496  0.00  0.00     0.116 C 
BRANCH  10  11
ATOM     11  C   UNL d   1     -45.015  12.553  21.975  0.00  0.00     0.014 C 
BRANCH  11  12
ATOM     12  C   UNL d   1     -44.179  12.628  21.812  0.00  0.00     0.001 A 
ATOM     13  C   UNL d   1     -43.628  12.103  22.175  0.00  0.00     0.000 A 
ATOM     14  C   UNL d   1     -42.825  12.187  22.009  0.00  0.00     0.000 A 
ATOM     15  C   UNL d   1     -42.560  12.766  21.502  0.00  0.00     0.000 A 
ATOM     16  C   UNL d   1     -43.118  13.281  21.147  0.00  0.00     0.000 A 
ATOM     17  C   UNL d   1     -43.927  13.215  21.300  0.00  0.00     0.000 A 
ENDBRANCH  11  12
ENDBRANCH  10  11
ENDBRANCH   7  10
ENDBRANCH   1   7
BRANCH   2  18
ATOM     18  C   UNL d   1     -49.427  12.656  23.270  0.00  0.00     0.086 A 
ATOM     19  C   UNL d   1     -49.903  13.340  23.411  0.00  0.00     0.110 A 
ATOM     20  C   UNL d   1     -50.710  13.254  23.577  0.00  0.00     0.026 A 
ATOM     21  C   UNL d   1     -51.064  12.482  23.607  0.00  0.00     0.002 A 
ATOM     22  C   UNL d   1     -50.581  11.830  23.466  0.00  0.00     0.002 A 
ATOM     23  C   UNL d   1     -49.765  11.925  23.299  0.00  0.00     0.019 A 
BRANCH  19  24
ATOM     24  O   UNL d   1     -49.563  14.087  23.382  0.00  0.00    -0.327 OA
ATOM     25  C   UNL d   1     -50.016  14.765  23.506  0.00  0.00     0.181 C 
ENDBRANCH  19  24
ENDBRANCH   2  18
TORSDOF 6
ENDMDL
MODEL 3
REMARK VINA RESULT:      -5.8      1.341      5.601
REMARK  6 active torsions:
REMARK  status: ('A' for Active; 'I' for Inactive)
REMARK    1  A    between atoms: N_2  and  S_1 
REMARK    2  A    between atoms: C_4  and  S_1 
REMARK    3  A    between atoms: C_5  and  N_3 
REMARK    4  A    between atoms: C_10  and  C_4 
REMARK    5  A    between atoms: C_14  and  C_10 
REMARK    6  A    between atoms: O_15  and  C_13 
ROOT
ATOM      1  N   UNL d   1     -46.927  13.540  22.640  0.00  0.00    -0.226 N 
ATOM      2  N   UNL d   1     -45.397  13.023  22.266  0.00  0.00    -0.300 N 
ATOM      3  C   UNL d   1     -46.281  13.763  23.118  0.00  0.00     0.111 A 
ATOM      4  C   UNL d   1     -46.799  13.069  21.994  0.00  0.00     0.111 A 
ATOM      5  C   UNL d   1     -46.049  12.809  21.800  0.00  0.00     0.100 A 
ATOM      6  C   UNL d   1     -45.531  13.503  22.924  0.00  0.00     0.100 A 
ENDROOT
BRANCH   1   7
ATOM      7  S   UNL d   1     -47.695  13.799  22.828  0.00  0.00     0.272 S 
ATOM      8  O   UNL d   1     -47.889  13.020  23.097  0.00  0.00    -0.200 OA
ATOM      9  O   UNL d   1     -47.504  14.550  22.568  0.00  0.00    -0.200 OA
BRANCH   7  10
ATOM     10  C   UNL d   1     -48.451  14.044  23.017  0.00  0.00     0.116 C 
BRANCH  10  11
ATOM     11  C   UNL d   1     -48.716  14.800  22.772  0.00  0.00     0.014 C 
BRANCH  11  12
ATOM     12  C   UNL d   1     -49.514  15.059  22.939  0.00  0.00     0.001 A 
ATOM     13  C   UNL d   1     -50.165  14.713  22.527  0.00  0.00     0.000 A 
ATOM     14  C   UNL d   1     -50.929  14.972  22.697  0.00  0.00     0.000 A 
ATOM     15  C   UNL d   1     -51.062  15.552  23.253  0.00  0.00     0.000 A 
ATOM     16  C   UNL d   1     -50.406  15.886  23.655  0.00  0.00     0.000 A 
ATOM     17  C   UNL d   1     -49.633  15.641  23.500  0.00  0.00     0.000 A 
ENDBRANCH  11  12
ENDBRANCH  10  11
ENDBRANCH   7  10
ENDBRANCH   1   7
BRANCH   2  18
ATOM     18  C   UNL d   1     -44.639  12.774  22.090  0.00  0.00     0.086 A 
ATOM     19  C   UNL d   1     -44.321  12.096  22.483  0.00  0.00     0.110 A 
ATOM     20  C   UNL d   1     -43.553  11.840  22.307  0.00  0.00     0.026 A 
ATOM     21  C   UNL d   1     -43.081  12.255  21.733  0.00  0.00     0.002 A 
ATOM     22  C   UNL d   1     -43.412  12.912  21.363  0.00  0.00     0.002 A 
ATOM     23  C   UNL d   1     -44.191  13.165  21.547  0.00  0.00     0.019 A 
BRANCH  19  24
ATOM     24  O   UNL d   1     -44.774  11.694  23.037  0.00  0.00    -0.327 OA
ATOM     25  C   UNL d   1     -44.536  10.961  23.329  0.00  0.00     0.181 C 
ENDBRANCH  19  24
ENDBRANCH   2  18
TORSDOF 6
ENDMDL
MODEL 4
REMARK VINA RESULT:      -4.4      8.680     10.666
REMARK  6 active torsions:
REMARK  status: ('A' for Active; 'I' for Inactive)
REMARK    1  A    between atoms: N_2  and  S_1 
REMARK    2  A    between atoms: C_4  and  S_1 
REMARK    3  A    between atoms: C_5  and  N_3 
REMARK    4  A    between atoms: C_10  and  C_4 
REMARK    5  A    between atoms: C_14  and  C_10 
REMARK    6  A    between atoms: O_15  and  C_13 
ROOT
ATOM      1  N   UNL d   1     -39.140  14.864  17.872  0.00  0.00    -0.226 N 
ATOM      2  N   UNL d   1     -39.547  14.907  19.478  0.00  0.00    -0.300 N 
ATOM      3  C   UNL d   1     -38.975  15.542  18.328  0.00  0.00     0.111 A 
ATOM      4  C   UNL d   1     -39.499  14.228  18.221  0.00  0.00     0.111 A 
ATOM      5  C   UNL d   1     -39.704  14.239  19.012  0.00  0.00     0.100 A 
ATOM      6  C   UNL d   1     -39.180  15.553  19.119  0.00  0.00     0.100 A 
ENDROOT
BRANCH   1   7
ATOM      7  S   UNL d   1     -38.935  14.842  17.066  0.00  0.00     0.272 S 
ATOM      8  O   UNL d   1     -38.122  14.740  17.278  0.00  0.00    -0.200 OA
ATOM      9  O   UNL d   1     -39.721  14.942  16.864  0.00  0.00    -0.200 OA
BRANCH   7  10
ATOM     10  C   UNL d   1     -38.724  14.820  16.277  0.00  0.00     0.116 C 
BRANCH  10  11
ATOM     11  C   UNL d   1     -38.304  14.161  15.977  0.00  0.00     0.014 C 
BRANCH  11  12
ATOM     12  C   UNL d   1     -38.180  14.066  15.136  0.00  0.00     0.001 A 
ATOM     13  C   UNL d   1     -38.058  13.297  14.812  0.00  0.00     0.000 A 
ATOM     14  C   UNL d   1     -37.940  13.220  13.999  0.00  0.00     0.000 A 
ATOM     15  C   UNL d   1     -37.940  13.871  13.511  0.00  0.00     0.000 A 
ATOM     16  C   UNL d   1     -38.062  14.629  13.848  0.00  0.00     0.000 A 
ATOM     17  C   UNL d   1     -38.183  14.729  14.658  0.00  0.00     0.000 A 
ENDBRANCH  11  12
ENDBRANCH  10  11
ENDBRANCH   7  10
ENDBRANCH   1   7
BRANCH   2  18
ATOM     18  C   UNL d   1     -39.744  14.938  20.271  0.00  0.00     0.086 A 
ATOM     19  C   UNL d   1     -39.233  14.581  20.842  0.00  0.00     0.110 A 
ATOM     20  C   UNL d   1     -39.429  14.611  21.647  0.00  0.00     0.026 A 
ATOM     21  C   UNL d   1     -40.142  14.998  21.902  0.00  0.00     0.002 A 
ATOM     22  C   UNL d   1     -40.624  15.338  21.328  0.00  0.00     0.002 A 
ATOM     23  C   UNL d   1     -40.418  15.304  20.515  0.00  0.00     0.019 A 
BRANCH  19  24
ATOM     24  O   UNL d   1     -38.544  14.207  20.598  0.00  0.00    -0.327 OA
ATOM     25  C   UNL d   1     -37.976  13.964  21.144  0.00  0.00     0.181 C 
ENDBRANCH  19  24
ENDBRANCH   2  18
TORSDOF 6
ENDMDL
MODEL 5
REMARK VINA RESULT:      -4.3      1.391      5.586
REMARK  6 active torsions:
REMARK  status: ('A' for Active; 'I' for Inactive)
REMARK    1  A    between atoms: N_2  and  S_1 
REMARK    2  A    between atoms: C_4  and  S_1 
REMARK    3  A    between atoms: C_5  and  N_3 
REMARK    4  A    between atoms: C_10  and  C_4 
REMARK    5  A    between atoms: C_14  and  C_10 
REMARK    6  A    between atoms: O_15  and  C_13 
ROOT
ATOM      1  N   UNL d   1     -47.146  11.971  23.300  0.00  0.00    -0.226 N 
ATOM      2  N   UNL d   1     -45.637  11.288  23.314  0.00  0.00    -0.300 N 
ATOM      3  C   UNL d   1     -47.053  11.165  23.492  0.00  0.00     0.111 A 
ATOM      4  C   UNL d   1     -46.494  12.415  23.121  0.00  0.00     0.111 A 
ATOM      5  C   UNL d   1     -45.745  12.088  23.125  0.00  0.00     0.100 A 
ATOM      6  C   UNL d   1     -46.304  10.838  23.496  0.00  0.00     0.100 A 
ENDROOT
BRANCH   1   7
ATOM      7  S   UNL d   1     -47.905  12.314  23.293  0.00  0.00     0.272 S 
ATOM      8  O   UNL d   1     -47.555  13.082  23.361  0.00  0.00    -0.200 OA
ATOM      9  O   UNL d   1     -48.239  11.571  23.226  0.00  0.00    -0.200 OA
BRANCH   7  10
ATOM     10  C   UNL d   1     -48.645  12.660  23.286  0.00  0.00     0.116 C 
BRANCH  10  11
ATOM     11  C   UNL d   1     -49.214  12.414  22.723  0.00  0.00     0.014 C 
BRANCH  11  12
ATOM     12  C   UNL d   1     -49.844  12.939  22.480  0.00  0.00     0.001 A 
ATOM     13  C   UNL d   1     -50.321  13.324  23.060  0.00  0.00     0.000 A 
ATOM     14  C   UNL d   1     -50.925  13.828  22.811  0.00  0.00     0.000 A 
ATOM     15  C   UNL d   1     -51.064  13.958  22.020  0.00  0.00     0.000 A 
ATOM     16  C   UNL d   1     -50.582  13.569  21.454  0.00  0.00     0.000 A 
ATOM     17  C   UNL d   1     -49.972  13.060  21.681  0.00  0.00     0.000 A 
ENDBRANCH  11  12
ENDBRANCH  10  11
ENDBRANCH   7  10
ENDBRANCH   1   7
BRANCH   2  18
ATOM     18  C   UNL d   1     -44.896  10.942  23.324  0.00  0.00     0.086 A 
ATOM     19  C   UNL d   1     -44.247  11.334  22.952  0.00  0.00     0.110 A 
ATOM     20  C   UNL d   1     -43.495  10.986  22.960  0.00  0.00     0.026 A 
ATOM     21  C   UNL d   1     -43.371  10.236  23.341  0.00  0.00     0.002 A 
ATOM     22  C   UNL d   1     -44.019   9.873  23.697  0.00  0.00     0.002 A 
ATOM     23  C   UNL d   1     -44.777  10.232  23.685  0.00  0.00     0.019 A 
BRANCH  19  24
ATOM     24  O   UNL d   1     -44.363  12.059  22.583  0.00  0.00    -0.327 OA
ATOM     25  C   UNL d   1     -43.764  12.411  22.140  0.00  0.00     0.181 C 
ENDBRANCH  19  24
ENDBRANCH   2  18
TORSDOF 6
ENDMDL
MODEL 6
REMARK VINA RESULT:      -4.2      9.064     10.070
REMARK  6 active torsions:
REMARK  status: ('A' for Active; 'I' for Inactive)
REMARK    1  A    between atoms: N_2  and  S_1 
REMARK    2  A    between atoms: C_4  and  S_1 
REMARK    3  A    between atoms: C_5  and  N_3 
REMARK    4  A    between atoms: C_10  and  C_4 
REMARK    5  A    between atoms: C_14  and  C_10 
REMARK    6  A    between atoms: O_15  and  C_13 
ROOT
ATOM      1  N   UNL d   1     -38.479  14.564  19.245  0.00  0.00    -0.226 N 
ATOM      2  N   UNL d   1     -38.821  15.093  17.712  0.00  0.00    -0.300 N 
ATOM      3  C   UNL d   1     -38.424  15.375  19.060  0.00  0.00     0.111 A 
ATOM      4  C   UNL d   1     -38.700  14.039  18.669  0.00  0.00     0.111 A 
ATOM      5  C   UNL d   1     -38.871  14.289  17.911  0.00  0.00     0.100 A 
ATOM      6  C   UNL d   1     -38.595  15.625  18.301  0.00  0.00     0.100 A 
ENDROOT
BRANCH   1   7
ATOM      7  S   UNL d   1     -38.307  14.298  20.014  0.00  0.00     0.272 S 
ATOM      8  O   UNL d   1     -38.272  15.102  20.280  0.00  0.00    -0.200 OA
ATOM      9  O   UNL d   1     -38.340  13.524  19.755  0.00  0.00    -0.200 OA
BRANCH   7  10
ATOM     10  C   UNL d   1     -38.137  14.048  20.773  0.00  0.00     0.116 C 
BRANCH  10  11
ATOM     11  C   UNL d   1     -38.758  13.803  21.279  0.00  0.00     0.014 C 
BRANCH  11  12
ATOM     12  C   UNL d   1     -38.610  13.633  22.104  0.00  0.00     0.001 A 
ATOM     13  C   UNL d   1     -38.073  13.018  22.318  0.00  0.00     0.000 A 
ATOM     14  C   UNL d   1     -37.940  12.865  23.118  0.00  0.00     0.000 A 
ATOM     15  C   UNL d   1     -38.316  13.296  23.697  0.00  0.00     0.000 A 
ATOM     16  C   UNL d   1     -38.846  13.904  23.469  0.00  0.00     0.000 A 
ATOM     17  C   UNL d   1     -38.995  14.074  22.675  0.00  0.00     0.000 A 
ENDBRANCH  11  12
ENDBRANCH  10  11
ENDBRANCH   7  10
ENDBRANCH   1   7
BRANCH   2  18
ATOM     18  C   UNL d   1     -38.988  15.364  16.960  0.00  0.00     0.086 A 
ATOM     19  C   UNL d   1     -39.790  15.520  16.739  0.00  0.00     0.110 A 
ATOM     20  C   UNL d   1     -39.962  15.795  15.977  0.00  0.00     0.026 A 
ATOM     21  C   UNL d   1     -39.339  15.922  15.413  0.00  0.00     0.002 A 
ATOM     22  C   UNL d   1     -38.566  15.764  15.650  0.00  0.00     0.002 A 
ATOM     23  C   UNL d   1     -38.399  15.485  16.424  0.00  0.00     0.019 A 
BRANCH  19  24
ATOM     24  O   UNL d   1     -40.394  15.398  17.282  0.00  0.00    -0.327 OA
ATOM     25  C   UNL d   1     -41.178  15.563  17.089  0.00  0.00     0.181 C 
ENDBRANCH  19  24
ENDBRANCH   2  18
TORSDOF 6
ENDMDL
