MODEL 1
REMARK VINA RESULT:       3.2      0.000      0.000
REMARK  7 active torsions:
REMARK  status: ('A' for Active; 'I' for Inactive)
REMARK    1  A    between atoms: C_2  and  S_1 
REMARK    2  A    between atoms: N_6  and  S_1 
REMARK    3  A    between atoms: C_14  and  C_4 
REMARK    4  A    between atoms: O_15  and  C_5 
REMARK    5  A    between atoms: C_12  and  N_6 
REMARK    6  A    between atoms: C_13  and  C_12 
REMARK    7  A    between atoms: C_20  and  O_15 
ROOT
ATOM      1  C   UNL d   1      30.432  16.479 -24.042  0.00  0.00     0.128 A 
ATOM      2  C   UNL d   1      31.125  16.158 -23.729  0.00  0.00     0.015 A 
ATOM      3  C   UNL d   1      31.834  16.568 -23.790  0.00  0.00     0.001 A 
ATOM      4  C   UNL d   1      30.454  17.215 -24.417  0.00  0.00     0.112 A 
ATOM      5  C   UNL d   1      31.856  17.304 -24.164  0.00  0.00     0.002 A 
ATOM      6  C   UNL d   1      31.164  17.625 -24.477  0.00  0.00     0.025 A 
ATOM      7  C   UNL d   1      32.569  17.716 -24.225  0.00  0.00     0.000 C 
ENDROOT
BRANCH   1   8
ATOM      8  S   UNL d   1      29.719  16.067 -23.981  0.00  0.00     0.287 S 
ATOM      9  O   UNL d   1      29.797  15.816 -24.766  0.00  0.00    -0.198 OA
ATOM     10  O   UNL d   1      29.641  16.317 -23.197  0.00  0.00    -0.198 OA
BRANCH   8  11
ATOM     11  N   UNL d   1      29.005  15.654 -23.920  0.00  0.00    -0.155 NA
BRANCH  11  12
ATOM     12  C   UNL d   1      28.500  15.795 -23.284  0.00  0.00     0.131 C 
BRANCH  12  13
ATOM     13  C   UNL d   1      27.685  15.680 -23.369  0.00  0.00     0.101 A 
ATOM     14  N   UNL d   1      27.205  15.673 -22.703  0.00  0.00    -0.242 NA
ATOM     15  C   UNL d   1      26.394  15.560 -22.780  0.00  0.00     0.099 A 
ATOM     16  C   UNL d   1      26.065  15.453 -23.539  0.00  0.00     0.021 A 
ATOM     17  C   UNL d   1      26.552  15.461 -24.204  0.00  0.00     0.003 A 
ATOM     18  C   UNL d   1      27.359  15.574 -24.120  0.00  0.00     0.021 A 
ENDBRANCH  12  13
ENDBRANCH  11  12
ENDBRANCH   8  11
ENDBRANCH   1   8
BRANCH   4  19
ATOM     19  O   UNL d   1      29.760  17.539 -24.732  0.00  0.00    -0.304 OA
BRANCH  19  20
ATOM     20  C   UNL d   1      29.748  18.327 -24.976  0.00  0.00     0.123 C 
ATOM     21  C   UNL d   1      29.021  18.718 -25.088  0.00  0.00     0.029 C 
ENDBRANCH  19  20
ENDBRANCH   4  19
BRANCH   3  22
ATOM     22  C   UNL d   1      32.527  16.247 -23.476  0.00  0.00     0.000 C 
ATOM     23  C   UNL d   1      32.971  15.715 -23.925  0.00  0.00     0.000 C 
ATOM     24  C   UNL d   1      32.774  16.456 -22.717  0.00  0.00     0.000 C 
ENDBRANCH   3  22
TORSDOF 7
ENDMDL
MODEL 2
REMARK VINA RESULT:       3.3      6.551      7.731
REMARK  7 active torsions:
REMARK  status: ('A' for Active; 'I' for Inactive)
REMARK    1  A    between atoms: C_2  and  S_1 
REMARK    2  A    between atoms: N_6  and  S_1 
REMARK    3  A    between atoms: C_14  and  C_4 
REMARK    4  A    between atoms: O_15  and  C_5 
REMARK    5  A    between atoms: C_12  and  N_6 
REMARK    6  A    between atoms: C_13  and  C_12 
REMARK    7  A    between atoms: C_20  and  O_15 
ROOT
ATOM      1  C   UNL d   1      32.541  21.939 -21.159  0.00  0.00     0.128 A 
ATOM      2  C   UNL d   1      32.753  21.142 -21.138  0.00  0.00     0.015 A 
ATOM      3  C   UNL d   1      32.872  20.728 -21.838  0.00  0.00     0.001 A 
ATOM      4  C   UNL d   1      32.448  22.320 -21.886  0.00  0.00     0.112 A 
ATOM      5  C   UNL d   1      32.780  21.109 -22.565  0.00  0.00     0.002 A 
ATOM      6  C   UNL d   1      32.567  21.906 -22.586  0.00  0.00     0.025 A 
ATOM      7  C   UNL d   1      32.899  20.693 -23.268  0.00  0.00     0.000 C 
ENDROOT
BRANCH   1   8
ATOM      8  S   UNL d   1      32.421  22.355 -20.456  0.00  0.00     0.287 S 
ATOM      9  O   UNL d   1      33.239  22.448 -20.371  0.00  0.00    -0.198 OA
ATOM     10  O   UNL d   1      31.604  22.263 -20.540  0.00  0.00    -0.198 OA
BRANCH   8  11
ATOM     11  N   UNL d   1      32.302  22.772 -19.751  0.00  0.00    -0.155 NA
BRANCH  11  12
ATOM     12  C   UNL d   1      32.321  22.375 -19.029  0.00  0.00     0.131 C 
BRANCH  12  13
ATOM     13  C   UNL d   1      32.356  22.803 -18.322  0.00  0.00     0.101 A 
ATOM     14  N   UNL d   1      31.720  23.272 -18.100  0.00  0.00    -0.242 NA
ATOM     15  C   UNL d   1      31.747  23.701 -17.399  0.00  0.00     0.099 A 
ATOM     16  C   UNL d   1      32.426  23.654 -16.916  0.00  0.00     0.021 A 
ATOM     17  C   UNL d   1      33.062  23.181 -17.144  0.00  0.00     0.003 A 
ATOM     18  C   UNL d   1      33.027  22.757 -17.844  0.00  0.00     0.021 A 
ENDBRANCH  12  13
ENDBRANCH  11  12
ENDBRANCH   8  11
ENDBRANCH   1   8
BRANCH   4  19
ATOM     19  O   UNL d   1      32.235  23.120 -21.909  0.00  0.00    -0.304 OA
BRANCH  19  20
ATOM     20  C   UNL d   1      32.039  23.473 -22.629  0.00  0.00     0.123 C 
ATOM     21  C   UNL d   1      31.247  23.484 -22.887  0.00  0.00     0.029 C 
ENDBRANCH  19  20
ENDBRANCH   4  19
BRANCH   3  22
ATOM     22  C   UNL d   1      33.085  19.931 -21.817  0.00  0.00     0.000 C 
ATOM     23  C   UNL d   1      33.202  19.557 -21.090  0.00  0.00     0.000 C 
ATOM     24  C   UNL d   1      33.179  19.508 -22.520  0.00  0.00     0.000 C 
ENDBRANCH   3  22
TORSDOF 7
ENDMDL
