MODEL 1
REMARK VINA RESULT:      -9.0      0.000      0.000
REMARK  8 active torsions:
REMARK  status: ('A' for Active; 'I' for Inactive)
REMARK    1  A    between atoms: N_2  and  S_1 
REMARK    2  A    between atoms: C_6  and  S_1 
REMARK    3  A    between atoms: C_5  and  N_2 
REMARK    4  A    between atoms: C_4  and  C_3 
REMARK       I    between atoms: N_9  and  C_4 
REMARK    5  A    between atoms: C_14  and  N_9 
REMARK    6  A    between atoms: C_16  and  C_14 
REMARK    7  A    between atoms: O_20  and  C_15 
REMARK    8  A    between atoms: C_23  and  O_20 
ROOT
ATOM      1  C   UNL d   1      53.737  33.102  54.091  0.00  0.00     0.076 A 
ATOM      2  C   UNL d   1      53.092  33.529  53.788  0.00  0.00     0.098 A 
ATOM      3  C   UNL d   1      54.127  33.367  54.766  0.00  0.00     0.006 A 
ATOM      4  C   UNL d   1      52.843  34.223  54.167  0.00  0.00     0.020 A 
ATOM      5  C   UNL d   1      53.879  34.058  55.142  0.00  0.00     0.000 A 
ATOM      6  C   UNL d   1      53.237  34.486  54.843  0.00  0.00     0.002 A 
ENDROOT
BRANCH   2   7
ATOM      7  N   UNL d   1      52.700  33.265  53.112  0.00  0.00    -0.158 NA
BRANCH   7   8
ATOM      8  S   UNL d   1      51.980  33.600  52.894  0.00  0.00     0.285 S 
ATOM      9  O   UNL d   1      51.579  33.031  53.329  0.00  0.00    -0.198 OA
ATOM     10  O   UNL d   1      52.388  34.173  52.455  0.00  0.00    -0.198 OA
BRANCH   8  11
ATOM     11  C   UNL d   1      51.258  33.933  52.676  0.00  0.00     0.105 A 
ATOM     12  C   UNL d   1      50.657  34.018  53.234  0.00  0.00     0.015 A 
ATOM     13  C   UNL d   1      49.936  34.352  53.015  0.00  0.00     0.025 A 
ATOM     14  C   UNL d   1      49.815  34.601  52.238  0.00  0.00     0.100 A 
ATOM     15  C   UNL d   1      50.422  34.514  51.678  0.00  0.00     0.025 A 
ATOM     16  C   UNL d   1      51.139  34.181  51.900  0.00  0.00     0.015 A 
BRANCH  14  17
ATOM     17  O   UNL d   1      49.096  34.933  52.019  0.00  0.00    -0.305 OA
BRANCH  17  18
ATOM     18  C   UNL d   1      48.735  34.709  51.310  0.00  0.00     0.123 C 
ATOM     19  C   UNL d   1      47.989  35.004  51.118  0.00  0.00     0.029 C 
ENDBRANCH  17  18
ENDBRANCH  14  17
ENDBRANCH   8  11
ENDBRANCH   7   8
ENDBRANCH   2   7
BRANCH   1  20
ATOM     20  C   UNL d   1      53.986  32.410  53.715  0.00  0.00     0.281 C 
ATOM     21  N   UNL d   1      53.685  31.679  53.953  0.00  0.00    -0.204 NA
ATOM     22  O   UNL d   1      54.537  32.452  53.102  0.00  0.00    -0.265 OA
BRANCH  21  23
ATOM     23  C   UNL d   1      53.938  30.990  53.573  0.00  0.00     0.127 C 
BRANCH  23  24
ATOM     24  C   UNL d   1      53.564  30.272  53.731  0.00  0.00     0.119 A 
ATOM     25  O   UNL d   1      53.632  29.837  54.425  0.00  0.00    -0.304 OA
ATOM     26  C   UNL d   1      53.168  29.159  54.348  0.00  0.00     0.123 A 
ATOM     27  C   UNL d   1      52.814  29.180  53.602  0.00  0.00     0.029 A 
ATOM     28  C   UNL d   1      53.060  29.869  53.221  0.00  0.00     0.028 A 
ENDBRANCH  23  24
ENDBRANCH  21  23
ENDBRANCH   1  20
TORSDOF 8
ENDMDL
MODEL 2
REMARK VINA RESULT:      -8.5      1.055      5.056
REMARK  8 active torsions:
REMARK  status: ('A' for Active; 'I' for Inactive)
REMARK    1  A    between atoms: N_2  and  S_1 
REMARK    2  A    between atoms: C_6  and  S_1 
REMARK    3  A    between atoms: C_5  and  N_2 
REMARK    4  A    between atoms: C_4  and  C_3 
REMARK       I    between atoms: N_9  and  C_4 
REMARK    5  A    between atoms: C_14  and  N_9 
REMARK    6  A    between atoms: C_16  and  C_14 
REMARK    7  A    between atoms: O_20  and  C_15 
REMARK    8  A    between atoms: C_23  and  O_20 
ROOT
ATOM      1  C   UNL d   1      52.029  34.250  52.967  0.00  0.00     0.076 A 
ATOM      2  C   UNL d   1      52.416  33.527  53.103  0.00  0.00     0.098 A 
ATOM      3  C   UNL d   1      52.239  34.919  53.398  0.00  0.00     0.006 A 
ATOM      4  C   UNL d   1      53.016  33.483  53.674  0.00  0.00     0.020 A 
ATOM      5  C   UNL d   1      52.836  34.874  53.967  0.00  0.00     0.000 A 
ATOM      6  C   UNL d   1      53.224  34.157  54.104  0.00  0.00     0.002 A 
ENDROOT
BRANCH   2   7
ATOM      7  N   UNL d   1      52.207  32.856  52.672  0.00  0.00    -0.158 NA
BRANCH   7   8
ATOM      8  S   UNL d   1      52.449  32.110  52.924  0.00  0.00     0.285 S 
ATOM      9  O   UNL d   1      51.779  32.048  53.394  0.00  0.00    -0.198 OA
ATOM     10  O   UNL d   1      53.125  32.176  52.449  0.00  0.00    -0.198 OA
BRANCH   8  11
ATOM     11  C   UNL d   1      52.689  31.364  53.178  0.00  0.00     0.105 A 
ATOM     12  C   UNL d   1      53.487  31.209  53.313  0.00  0.00     0.015 A 
ATOM     13  C   UNL d   1      53.725  30.462  53.566  0.00  0.00     0.025 A 
ATOM     14  C   UNL d   1      53.164  29.868  53.686  0.00  0.00     0.100 A 
ATOM     15  C   UNL d   1      52.361  30.026  53.550  0.00  0.00     0.025 A 
ATOM     16  C   UNL d   1      52.128  30.772  53.297  0.00  0.00     0.015 A 
BRANCH  14  17
ATOM     17  O   UNL d   1      53.401  29.123  53.939  0.00  0.00    -0.305 OA
BRANCH  17  18
ATOM     18  C   UNL d   1      53.319  28.910  54.733  0.00  0.00     0.123 C 
ATOM     19  C   UNL d   1      53.640  28.200  55.003  0.00  0.00     0.029 C 
ENDBRANCH  17  18
ENDBRANCH  14  17
ENDBRANCH   8  11
ENDBRANCH   7   8
ENDBRANCH   2   7
BRANCH   1  20
ATOM     20  C   UNL d   1      51.431  34.296  52.399  0.00  0.00     0.281 C 
ATOM     21  N   UNL d   1      50.655  34.460  52.627  0.00  0.00    -0.204 NA
ATOM     22  O   UNL d   1      51.613  34.177  51.603  0.00  0.00    -0.265 OA
BRANCH  21  23
ATOM     23  C   UNL d   1      50.061  34.505  52.055  0.00  0.00     0.127 C 
BRANCH  23  24
ATOM     24  C   UNL d   1      49.340  34.860  52.237  0.00  0.00     0.119 A 
ATOM     25  O   UNL d   1      49.146  35.217  52.951  0.00  0.00    -0.304 OA
ATOM     26  C   UNL d   1      48.372  35.499  52.894  0.00  0.00     0.123 A 
ATOM     27  C   UNL d   1      48.091  35.313  52.140  0.00  0.00     0.029 A 
ATOM     28  C   UNL d   1      48.690  34.918  51.734  0.00  0.00     0.028 A 
ENDBRANCH  23  24
ENDBRANCH  21  23
ENDBRANCH   1  20
TORSDOF 8
ENDMDL
MODEL 3
REMARK VINA RESULT:      -6.9      2.573      6.192
REMARK  8 active torsions:
REMARK  status: ('A' for Active; 'I' for Inactive)
REMARK    1  A    between atoms: N_2  and  S_1 
REMARK    2  A    between atoms: C_6  and  S_1 
REMARK    3  A    between atoms: C_5  and  N_2 
REMARK    4  A    between atoms: C_4  and  C_3 
REMARK       I    between atoms: N_9  and  C_4 
REMARK    5  A    between atoms: C_14  and  N_9 
REMARK    6  A    between atoms: C_16  and  C_14 
REMARK    7  A    between atoms: O_20  and  C_15 
REMARK    8  A    between atoms: C_23  and  O_20 
ROOT
ATOM      1  C   UNL d   1      48.428  35.463  52.441  0.00  0.00     0.076 A 
ATOM      2  C   UNL d   1      49.104  34.980  52.439  0.00  0.00     0.098 A 
ATOM      3  C   UNL d   1      47.962  35.525  51.765  0.00  0.00     0.006 A 
ATOM      4  C   UNL d   1      49.307  34.559  51.754  0.00  0.00     0.020 A 
ATOM      5  C   UNL d   1      48.166  35.106  51.084  0.00  0.00     0.000 A 
ATOM      6  C   UNL d   1      48.837  34.623  51.078  0.00  0.00     0.002 A 
ENDROOT
BRANCH   2   7
ATOM      7  N   UNL d   1      49.572  34.917  53.115  0.00  0.00    -0.158 NA
BRANCH   7   8
ATOM      8  S   UNL d   1      50.281  34.499  53.091  0.00  0.00     0.285 S 
ATOM      9  O   UNL d   1      50.689  35.195  52.937  0.00  0.00    -0.198 OA
ATOM     10  O   UNL d   1      49.866  33.798  53.247  0.00  0.00    -0.198 OA
BRANCH   8  11
ATOM     11  C   UNL d   1      50.993  34.084  53.066  0.00  0.00     0.105 A 
ATOM     12  C   UNL d   1      51.010  33.280  53.250  0.00  0.00     0.015 A 
ATOM     13  C   UNL d   1      51.722  32.867  53.225  0.00  0.00     0.025 A 
ATOM     14  C   UNL d   1      52.418  33.256  53.015  0.00  0.00     0.100 A 
ATOM     15  C   UNL d   1      52.399  34.065  52.830  0.00  0.00     0.025 A 
ATOM     16  C   UNL d   1      51.687  34.474  52.856  0.00  0.00     0.015 A 
BRANCH  14  17
ATOM     17  O   UNL d   1      53.129  32.844  52.989  0.00  0.00    -0.305 OA
BRANCH  17  18
ATOM     18  C   UNL d   1      53.666  32.907  53.614  0.00  0.00     0.123 C 
ATOM     19  C   UNL d   1      54.389  32.511  53.575  0.00  0.00     0.029 C 
ENDBRANCH  17  18
ENDBRANCH  14  17
ENDBRANCH   8  11
ENDBRANCH   7   8
ENDBRANCH   2   7
BRANCH   1  20
ATOM     20  C   UNL d   1      48.224  35.883  53.123  0.00  0.00     0.281 C 
ATOM     21  N   UNL d   1      47.505  35.733  53.501  0.00  0.00    -0.204 NA
ATOM     22  O   UNL d   1      48.740  36.451  53.424  0.00  0.00    -0.265 OA
BRANCH  21  23
ATOM     23  C   UNL d   1      47.306  36.156  54.182  0.00  0.00     0.127 C 
BRANCH  23  24
ATOM     24  C   UNL d   1      46.543  36.104  54.490  0.00  0.00     0.119 A 
ATOM     25  O   UNL d   1      46.018  35.484  54.371  0.00  0.00    -0.304 OA
ATOM     26  C   UNL d   1      45.321  35.658  54.778  0.00  0.00     0.123 A 
ATOM     27  C   UNL d   1      45.422  36.389  55.149  0.00  0.00     0.029 A 
ATOM     28  C   UNL d   1      46.178  36.664  54.971  0.00  0.00     0.028 A 
ENDBRANCH  23  24
ENDBRANCH  21  23
ENDBRANCH   1  20
TORSDOF 8
ENDMDL
MODEL 4
REMARK VINA RESULT:      -6.6      1.271      2.626
REMARK  8 active torsions:
REMARK  status: ('A' for Active; 'I' for Inactive)
REMARK    1  A    between atoms: N_2  and  S_1 
REMARK    2  A    between atoms: C_6  and  S_1 
REMARK    3  A    between atoms: C_5  and  N_2 
REMARK    4  A    between atoms: C_4  and  C_3 
REMARK       I    between atoms: N_9  and  C_4 
REMARK    5  A    between atoms: C_14  and  N_9 
REMARK    6  A    between atoms: C_16  and  C_14 
REMARK    7  A    between atoms: O_20  and  C_15 
REMARK    8  A    between atoms: C_23  and  O_20 
ROOT
ATOM      1  C   UNL d   1      53.224  31.859  53.188  0.00  0.00     0.076 A 
ATOM      2  C   UNL d   1      52.514  32.257  53.020  0.00  0.00     0.098 A 
ATOM      3  C   UNL d   1      53.235  31.037  53.240  0.00  0.00     0.006 A 
ATOM      4  C   UNL d   1      51.817  31.824  52.904  0.00  0.00     0.020 A 
ATOM      5  C   UNL d   1      52.540  30.607  53.124  0.00  0.00     0.000 A 
ATOM      6  C   UNL d   1      51.832  31.000  52.956  0.00  0.00     0.002 A 
ENDROOT
BRANCH   2   7
ATOM      7  N   UNL d   1      52.502  33.080  52.968  0.00  0.00    -0.158 NA
BRANCH   7   8
ATOM      8  S   UNL d   1      51.788  33.478  52.860  0.00  0.00     0.285 S 
ATOM      9  O   UNL d   1      51.896  33.456  52.047  0.00  0.00    -0.198 OA
ATOM     10  O   UNL d   1      51.683  33.497  53.683  0.00  0.00    -0.198 OA
BRANCH   8  11
ATOM     11  C   UNL d   1      51.075  33.875  52.750  0.00  0.00     0.105 A 
ATOM     12  C   UNL d   1      50.636  34.127  53.401  0.00  0.00     0.015 A 
ATOM     13  C   UNL d   1      49.923  34.524  53.288  0.00  0.00     0.025 A 
ATOM     14  C   UNL d   1      49.648  34.671  52.525  0.00  0.00     0.100 A 
ATOM     15  C   UNL d   1      50.092  34.417  51.870  0.00  0.00     0.025 A 
ATOM     16  C   UNL d   1      50.802  34.021  51.986  0.00  0.00     0.015 A 
BRANCH  14  17
ATOM     17  O   UNL d   1      48.937  35.067  52.412  0.00  0.00    -0.305 OA
BRANCH  17  18
ATOM     18  C   UNL d   1      48.665  35.601  52.982  0.00  0.00     0.123 C 
ATOM     19  C   UNL d   1      47.947  35.991  52.869  0.00  0.00     0.029 C 
ENDBRANCH  17  18
ENDBRANCH  14  17
ENDBRANCH   8  11
ENDBRANCH   7   8
ENDBRANCH   2   7
BRANCH   1  20
ATOM     20  C   UNL d   1      53.920  32.289  53.304  0.00  0.00     0.281 C 
ATOM     21  N   UNL d   1      54.164  32.483  54.069  0.00  0.00    -0.204 NA
ATOM     22  O   UNL d   1      54.370  32.523  52.654  0.00  0.00    -0.265 OA
BRANCH  21  23
ATOM     23  C   UNL d   1      54.860  32.912  54.179  0.00  0.00     0.127 C 
BRANCH  23  24
ATOM     24  C   UNL d   1      54.973  33.342  54.874  0.00  0.00     0.119 A 
ATOM     25  O   UNL d   1      54.695  33.135  55.618  0.00  0.00    -0.304 OA
ATOM     26  C   UNL d   1      54.933  33.718  56.151  0.00  0.00     0.123 A 
ATOM     27  C   UNL d   1      55.360  34.286  55.730  0.00  0.00     0.029 A 
ATOM     28  C   UNL d   1      55.384  34.052  54.940  0.00  0.00     0.028 A 
ENDBRANCH  23  24
ENDBRANCH  21  23
ENDBRANCH   1  20
TORSDOF 8
ENDMDL
