MODEL 1
REMARK VINA RESULT:      45.2      0.000      0.000
REMARK  5 active torsions:
REMARK  status: ('A' for Active; 'I' for Inactive)
REMARK    1  A    between atoms: C_7  and  N_2 
REMARK    2  A    between atoms: C_8  and  C_7 
REMARK    3  A    between atoms: C_13  and  C_8 
REMARK    4  A    between atoms: C_9  and  O_11 
REMARK    5  A    between atoms: O_11  and  C_13 
ROOT
ATOM      1  C   UNL d   1      60.378  49.439  52.424  0.00  0.00     0.296 A 
ATOM      2  N   UNL d   1      59.987  49.552  51.699  0.00  0.00    -0.268 N 
ATOM      3  S   UNL d   1      61.175  49.299  52.260  0.00  0.00    -0.025 SA
ATOM      4  C   UNL d   1      60.547  49.481  51.093  0.00  0.00     0.073 A 
ATOM      5  C   UNL d   1      61.281  49.324  51.443  0.00  0.00     0.050 A 
ATOM      6  O   UNL d   1      60.032  49.462  53.172  0.00  0.00    -0.259 OA
ATOM      7  C   UNL d   1      60.480  49.538  50.277  0.00  0.00     0.018 A 
ATOM      8  C   UNL d   1      61.952  49.225  50.958  0.00  0.00     0.008 A 
ATOM      9  C   UNL d   1      61.146  49.440  49.801  0.00  0.00     0.002 A 
ATOM     10  C   UNL d   1      61.877  49.284  50.139  0.00  0.00     0.001 A 
ENDROOT
BRANCH   2  11
ATOM     11  C   UNL d   1      59.185  49.708  51.600  0.00  0.00     0.086 C 
BRANCH  11  12
ATOM     12  C   UNL d   1      58.628  49.285  52.042  0.00  0.00     0.046 C 
BRANCH  12  13
ATOM     13  C   UNL d   1      57.827  49.467  51.978  0.00  0.00     0.124 C 
BRANCH  13  14
ATOM     14  O   UNL d   1      57.419  49.290  51.291  0.00  0.00    -0.305 OA
BRANCH  14  15
ATOM     15  C   UNL d   1      57.007  49.112  50.596  0.00  0.00     0.100 A 
ATOM     16  C   UNL d   1      56.873  49.707  50.047  0.00  0.00     0.025 A 
ATOM     17  C   UNL d   1      56.460  49.528  49.353  0.00  0.00     0.002 A 
ATOM     18  C   UNL d   1      56.188  48.763  49.214  0.00  0.00     0.000 A 
ATOM     19  C   UNL d   1      56.329  48.169  49.775  0.00  0.00     0.002 A 
ATOM     20  C   UNL d   1      56.737  48.344  50.463  0.00  0.00     0.025 A 
ENDBRANCH  14  15
ENDBRANCH  13  14
ENDBRANCH  12  13
ENDBRANCH  11  12
ENDBRANCH   2  11
TORSDOF 5
ENDMDL
MODEL 2
REMARK VINA RESULT:      47.8      2.173      4.073
REMARK  5 active torsions:
REMARK  status: ('A' for Active; 'I' for Inactive)
REMARK    1  A    between atoms: C_7  and  N_2 
REMARK    2  A    between atoms: C_8  and  C_7 
REMARK    3  A    between atoms: C_13  and  C_8 
REMARK    4  A    between atoms: C_9  and  O_11 
REMARK    5  A    between atoms: O_11  and  C_13 
ROOT
ATOM      1  C   UNL d   1      59.845  49.675  51.797  0.00  0.00     0.296 A 
ATOM      2  N   UNL d   1      59.895  49.631  50.968  0.00  0.00    -0.268 N 
ATOM      3  S   UNL d   1      59.046  49.708  52.000  0.00  0.00    -0.025 SA
ATOM      4  C   UNL d   1      59.124  49.638  50.666  0.00  0.00     0.073 A 
ATOM      5  C   UNL d   1      58.600  49.686  51.307  0.00  0.00     0.050 A 
ATOM      6  O   UNL d   1      60.481  49.683  52.321  0.00  0.00    -0.259 OA
ATOM      7  C   UNL d   1      58.838  49.607  49.897  0.00  0.00     0.018 A 
ATOM      8  C   UNL d   1      57.780  49.702  51.163  0.00  0.00     0.008 A 
ATOM      9  C   UNL d   1      58.025  49.624  49.760  0.00  0.00     0.002 A 
ATOM     10  C   UNL d   1      57.500  49.671  50.388  0.00  0.00     0.001 A 
ENDROOT
BRANCH   2  11
ATOM     11  C   UNL d   1      60.587  49.589  50.525  0.00  0.00     0.086 C 
BRANCH  11  12
ATOM     12  C   UNL d   1      60.779  48.887  50.132  0.00  0.00     0.046 C 
BRANCH  12  13
ATOM     13  C   UNL d   1      61.499  48.513  50.282  0.00  0.00     0.124 C 
BRANCH  13  14
ATOM     14  O   UNL d   1      61.605  47.728  50.075  0.00  0.00    -0.305 OA
BRANCH  14  15
ATOM     15  C   UNL d   1      61.712  46.935  49.866  0.00  0.00     0.100 A 
ATOM     16  C   UNL d   1      62.369  46.724  49.423  0.00  0.00     0.025 A 
ATOM     17  C   UNL d   1      62.475  45.931  49.214  0.00  0.00     0.002 A 
ATOM     18  C   UNL d   1      61.929  45.360  49.447  0.00  0.00     0.000 A 
ATOM     19  C   UNL d   1      61.268  45.584  49.894  0.00  0.00     0.002 A 
ATOM     20  C   UNL d   1      61.161  46.369  50.103  0.00  0.00     0.025 A 
ENDBRANCH  14  15
ENDBRANCH  13  14
ENDBRANCH  12  13
ENDBRANCH  11  12
ENDBRANCH   2  11
TORSDOF 5
ENDMDL
