MODEL 1
REMARK VINA RESULT:       2.4      0.000      0.000
REMARK  6 active torsions:
REMARK  status: ('A' for Active; 'I' for Inactive)
REMARK    1  A    between atoms: N_3  and  C_1 
REMARK       I    between atoms: C_5  and  N_3 
REMARK    2  A    between atoms: C_19  and  N_3 
REMARK    3  A    between atoms: C_8  and  C_5 
REMARK    4  A    between atoms: C_20  and  C_19 
REMARK    5  A    between atoms: C_23  and  C_20 
REMARK    6  A    between atoms: N_21  and  C_23 
ROOT
ATOM      1  N   UNL d   1      30.451  17.375 -24.203  0.00  0.00    -0.253 N 
ATOM      2  C   UNL d   1      30.480  18.126 -23.859  0.00  0.00     0.266 C 
ATOM      3  O   UNL d   1      29.825  18.436 -23.486  0.00  0.00    -0.267 OA
ENDROOT
BRANCH   1   4
ATOM      4  C   UNL d   1      29.744  16.937 -24.164  0.00  0.00     0.182 A 
ATOM      5  N   UNL d   1      29.427  16.595 -23.483  0.00  0.00    -0.222 NA
ATOM      6  C   UNL d   1      28.727  16.214 -23.681  0.00  0.00     0.089 A 
ATOM      7  C   UNL d   1      28.185  15.789 -23.245  0.00  0.00     0.018 A 
ATOM      8  C   UNL d   1      28.607  16.322 -24.495  0.00  0.00     0.050 A 
ATOM      9  C   UNL d   1      27.519  15.465 -23.602  0.00  0.00     0.002 A 
ATOM     10  C   UNL d   1      28.298  15.677 -22.430  0.00  0.00     0.002 C 
ATOM     11  C   UNL d   1      27.405  15.574 -24.406  0.00  0.00     0.001 A 
ATOM     12  C   UNL d   1      27.953  16.003 -24.847  0.00  0.00     0.008 A 
ATOM     13  S   UNL d   1      29.235  16.769 -24.795  0.00  0.00    -0.048 SA
ENDBRANCH   1   4
BRANCH   1  14
ATOM     14  C   UNL d   1      31.113  17.061 -24.580  0.00  0.00     0.086 C 
BRANCH  14  15
ATOM     15  C   UNL d   1      31.445  16.352 -24.308  0.00  0.00     0.038 C 
BRANCH  15  16
ATOM     16  C   UNL d   1      31.918  15.902 -24.810  0.00  0.00     0.082 C 
BRANCH  16  17
ATOM     17  N   UNL d   1      32.644  15.617 -24.548  0.00  0.00    -0.300 N 
ATOM     18  C   UNL d   1      32.772  15.496 -23.744  0.00  0.00     0.100 C 
ATOM     19  C   UNL d   1      33.240  15.455 -25.089  0.00  0.00     0.100 C 
ENDBRANCH  16  17
ENDBRANCH  15  16
ENDBRANCH  14  15
ENDBRANCH   1  14
BRANCH   2  20
ATOM     20  C   UNL d   1      31.183  18.556 -23.900  0.00  0.00     0.057 A 
ATOM     21  C   UNL d   1      31.315  19.087 -24.517  0.00  0.00     0.013 A 
ATOM     22  C   UNL d   1      32.027  19.510 -24.540  0.00  0.00     0.049 A 
ATOM     23  S   UNL d   1      32.305  20.070 -25.083  0.00  0.00    -0.064 SA
ATOM     24  C   UNL d   1      32.601  19.406 -23.957  0.00  0.00     0.088 A 
ATOM     25  C   UNL d   1      33.056  20.309 -24.828  0.00  0.00     0.135 A 
ATOM     26  N   UNL d   1      33.237  19.898 -24.132  0.00  0.00    -0.236 NA
ATOM     27  C   UNL d   1      32.470  18.876 -23.340  0.00  0.00     0.020 A 
ATOM     28  C   UNL d   1      31.764  18.449 -23.307  0.00  0.00     0.006 A 
ENDBRANCH   2  20
TORSDOF 6
ENDMDL
MODEL 2
REMARK VINA RESULT:       5.1      2.196      4.090
REMARK  6 active torsions:
REMARK  status: ('A' for Active; 'I' for Inactive)
REMARK    1  A    between atoms: N_3  and  C_1 
REMARK       I    between atoms: C_5  and  N_3 
REMARK    2  A    between atoms: C_19  and  N_3 
REMARK    3  A    between atoms: C_8  and  C_5 
REMARK    4  A    between atoms: C_20  and  C_19 
REMARK    5  A    between atoms: C_23  and  C_20 
REMARK    6  A    between atoms: N_21  and  C_23 
ROOT
ATOM      1  N   UNL d   1      32.718  19.813 -23.765  0.00  0.00    -0.253 N 
ATOM      2  C   UNL d   1      32.481  20.294 -24.394  0.00  0.00     0.266 C 
ATOM      3  O   UNL d   1      32.070  19.981 -25.024  0.00  0.00    -0.267 OA
ENDROOT
BRANCH   1   4
ATOM      4  C   UNL d   1      32.530  19.001 -23.782  0.00  0.00     0.182 A 
ATOM      5  N   UNL d   1      31.779  18.680 -23.674  0.00  0.00    -0.222 NA
ATOM      6  C   UNL d   1      31.831  17.862 -23.733  0.00  0.00     0.089 A 
ATOM      7  C   UNL d   1      31.279  17.266 -23.675  0.00  0.00     0.018 A 
ATOM      8  C   UNL d   1      32.626  17.674 -23.879  0.00  0.00     0.050 A 
ATOM      9  C   UNL d   1      31.500  16.478 -23.760  0.00  0.00     0.002 A 
ATOM     10  C   UNL d   1      30.481  17.445 -23.529  0.00  0.00     0.002 C 
ATOM     11  C   UNL d   1      32.285  16.298 -23.904  0.00  0.00     0.001 A 
ATOM     12  C   UNL d   1      32.844  16.900 -23.963  0.00  0.00     0.008 A 
ATOM     13  S   UNL d   1      33.060  18.378 -23.910  0.00  0.00    -0.048 SA
ENDBRANCH   1   4
BRANCH   1  14
ATOM     14  C   UNL d   1      33.134  20.130 -23.128  0.00  0.00     0.086 C 
BRANCH  14  15
ATOM     15  C   UNL d   1      32.967  19.872 -22.358  0.00  0.00     0.038 C 
BRANCH  15  16
ATOM     16  C   UNL d   1      33.241  20.305 -21.713  0.00  0.00     0.082 C 
BRANCH  16  17
ATOM     17  N   UNL d   1      32.841  20.272 -20.995  0.00  0.00    -0.300 N 
ATOM     18  C   UNL d   1      33.146  20.659 -20.335  0.00  0.00     0.100 C 
ATOM     19  C   UNL d   1      32.138  19.851 -20.937  0.00  0.00     0.100 C 
ENDBRANCH  16  17
ENDBRANCH  15  16
ENDBRANCH  14  15
ENDBRANCH   1  14
BRANCH   2  20
ATOM     20  C   UNL d   1      32.669  21.098 -24.373  0.00  0.00     0.057 A 
ATOM     21  C   UNL d   1      32.488  21.554 -23.711  0.00  0.00     0.013 A 
ATOM     22  C   UNL d   1      32.684  22.359 -23.709  0.00  0.00     0.049 A 
ATOM     23  S   UNL d   1      32.571  22.941 -23.131  0.00  0.00    -0.064 SA
ATOM     24  C   UNL d   1      33.056  22.706 -24.358  0.00  0.00     0.088 A 
ATOM     25  C   UNL d   1      32.877  23.650 -23.431  0.00  0.00     0.135 A 
ATOM     26  N   UNL d   1      33.176  23.502 -24.190  0.00  0.00    -0.236 NA
ATOM     27  C   UNL d   1      33.237  22.251 -25.021  0.00  0.00     0.020 A 
ATOM     28  C   UNL d   1      33.046  21.448 -25.033  0.00  0.00     0.006 A 
ENDBRANCH   2  20
TORSDOF 6
ENDMDL
MODEL 3
REMARK VINA RESULT:       5.3      5.087      6.939
REMARK  6 active torsions:
REMARK  status: ('A' for Active; 'I' for Inactive)
REMARK    1  A    between atoms: N_3  and  C_1 
REMARK       I    between atoms: C_5  and  N_3 
REMARK    2  A    between atoms: C_19  and  N_3 
REMARK    3  A    between atoms: C_8  and  C_5 
REMARK    4  A    between atoms: C_20  and  C_19 
REMARK    5  A    between atoms: C_23  and  C_20 
REMARK    6  A    between atoms: N_21  and  C_23 
ROOT
ATOM      1  N   UNL d   1      32.881  22.466 -21.508  0.00  0.00    -0.253 N 
ATOM      2  C   UNL d   1      32.499  23.138 -21.216  0.00  0.00     0.266 C 
ATOM      3  O   UNL d   1      32.145  23.667 -21.724  0.00  0.00    -0.267 OA
ENDROOT
BRANCH   1   4
ATOM      4  C   UNL d   1      32.901  22.335 -22.330  0.00  0.00     0.182 A 
ATOM      5  N   UNL d   1      33.028  22.913 -22.905  0.00  0.00    -0.222 NA
ATOM      6  C   UNL d   1      33.005  22.557 -23.645  0.00  0.00     0.089 A 
ATOM      7  C   UNL d   1      33.092  22.847 -24.402  0.00  0.00     0.018 A 
ATOM      8  C   UNL d   1      32.861  21.748 -23.528  0.00  0.00     0.050 A 
ATOM      9  C   UNL d   1      33.040  22.346 -25.052  0.00  0.00     0.002 A 
ATOM     10  C   UNL d   1      33.236  23.655 -24.528  0.00  0.00     0.002 C 
ATOM     11  C   UNL d   1      32.898  21.549 -24.932  0.00  0.00     0.001 A 
ATOM     12  C   UNL d   1      32.810  21.256 -24.167  0.00  0.00     0.008 A 
ATOM     13  S   UNL d   1      32.797  21.610 -22.715  0.00  0.00    -0.048 SA
ENDBRANCH   1   4
BRANCH   1  14
ATOM     14  C   UNL d   1      33.240  21.930 -20.994  0.00  0.00     0.086 C 
BRANCH  14  15
ATOM     15  C   UNL d   1      33.050  21.125 -21.040  0.00  0.00     0.038 C 
BRANCH  15  16
ATOM     16  C   UNL d   1      33.177  20.636 -20.389  0.00  0.00     0.082 C 
BRANCH  16  17
ATOM     17  N   UNL d   1      33.218  19.821 -20.488  0.00  0.00    -0.300 N 
ATOM     18  C   UNL d   1      33.236  19.497 -21.245  0.00  0.00     0.100 C 
ATOM     19  C   UNL d   1      33.240  19.329 -19.830  0.00  0.00     0.100 C 
ENDBRANCH  16  17
ENDBRANCH  15  16
ENDBRANCH  14  15
ENDBRANCH   1  14
BRANCH   2  20
ATOM     20  C   UNL d   1      32.482  23.263 -20.400  0.00  0.00     0.057 A 
ATOM     21  C   UNL d   1      31.764  23.332 -20.001  0.00  0.00     0.013 A 
ATOM     22  C   UNL d   1      31.768  23.458 -19.182  0.00  0.00     0.049 A 
ATOM     23  S   UNL d   1      31.142  23.547 -18.646  0.00  0.00    -0.064 SA
ATOM     24  C   UNL d   1      32.477  23.515 -18.765  0.00  0.00     0.088 A 
ATOM     25  C   UNL d   1      31.475  23.660 -17.896  0.00  0.00     0.135 A 
ATOM     26  N   UNL d   1      32.299  23.639 -17.972  0.00  0.00    -0.236 NA
ATOM     27  C   UNL d   1      33.195  23.447 -19.163  0.00  0.00     0.020 A 
ATOM     28  C   UNL d   1      33.203  23.321 -19.979  0.00  0.00     0.006 A 
ENDBRANCH   2  20
TORSDOF 6
ENDMDL
