MODEL 1
REMARK VINA RESULT:      -2.9      0.000      0.000
REMARK  5 active torsions:
REMARK  status: ('A' for Active; 'I' for Inactive)
REMARK       I    between atoms: C_3  and  N_1 
REMARK    1  A    between atoms: C_8  and  C_3 
REMARK    2  A    between atoms: S_4  and  N_9 
REMARK    3  A    between atoms: C_10  and  C_5 
REMARK    4  A    between atoms: C_11  and  C_6 
REMARK    5  A    between atoms: N_9  and  C_23 
ROOT
ATOM      1  N   UNL d   1      32.722  22.052 -22.056  0.00  0.00    -0.193 N 
ATOM      2  N   UNL d   1      32.802  21.417 -22.586  0.00  0.00    -0.163 NA
ATOM      3  C   UNL d   1      32.685  22.853 -22.264  0.00  0.00     0.303 C 
ATOM      4  C   UNL d   1      32.688  21.734 -21.286  0.00  0.00     0.088 A 
ATOM      5  C   UNL d   1      32.817  20.715 -22.151  0.00  0.00     0.103 A 
ATOM      6  C   UNL d   1      32.747  20.914 -21.349  0.00  0.00     0.040 A 
ATOM      7  O   UNL d   1      32.604  23.423 -21.665  0.00  0.00    -0.263 OA
ENDROOT
BRANCH   5   8
ATOM      8  C   UNL d   1      32.889  19.952 -22.457  0.00  0.00     0.019 A 
ATOM      9  C   UNL d   1      33.164  19.332 -21.971  0.00  0.00     0.003 A 
ATOM     10  C   UNL d   1      33.235  18.574 -22.278  0.00  0.00     0.020 A 
ATOM     11  C   UNL d   1      33.035  18.419 -23.068  0.00  0.00     0.093 A 
ATOM     12  C   UNL d   1      32.761  19.040 -23.551  0.00  0.00     0.020 A 
ATOM     13  C   UNL d   1      32.689  19.807 -23.241  0.00  0.00     0.003 A 
BRANCH  11  14
ATOM     14  N   UNL d   1      33.104  17.657 -23.384  0.00  0.00    -0.162 NA
BRANCH  14  15
ATOM     15  S   UNL d   1      32.460  17.149 -23.405  0.00  0.00     0.266 S 
ATOM     16  O   UNL d   1      33.029  16.614 -23.118  0.00  0.00    -0.203 OA
ATOM     17  O   UNL d   1      32.053  16.431 -23.310  0.00  0.00    -0.203 OA
ATOM     18  C   UNL d   1      31.877  17.659 -23.689  0.00  0.00     0.165 C 
ENDBRANCH  14  15
ENDBRANCH  11  14
ENDBRANCH   5   8
BRANCH   4  19
ATOM     19  C   UNL d   1      32.610  22.169 -20.595  0.00  0.00     0.018 A 
ATOM     20  C   UNL d   1      31.891  22.540 -20.430  0.00  0.00     0.004 A 
ATOM     21  C   UNL d   1      31.806  22.980 -19.735  0.00  0.00     0.030 A 
ATOM     22  C   UNL d   1      32.438  23.043 -19.219  0.00  0.00     0.140 A 
ATOM     23  C   UNL d   1      33.147  22.678 -19.382  0.00  0.00     0.030 A 
ATOM     24  F   UNL d   1      32.350  23.489 -18.518  0.00  0.00    -0.204 F 
ATOM     25  C   UNL d   1      33.241  22.239 -20.068  0.00  0.00     0.004 A 
ENDBRANCH   4  19
BRANCH   3  26
ATOM     26  C   UNL d   1      32.726  23.076 -23.048  0.00  0.00     0.158 A 
ATOM     27  O   UNL d   1      33.241  22.746 -23.631  0.00  0.00    -0.300 OA
ATOM     28  C   UNL d   1      33.091  23.140 -24.344  0.00  0.00     0.123 A 
ATOM     29  C   UNL d   1      32.502  23.699 -24.212  0.00  0.00     0.029 A 
ATOM     30  C   UNL d   1      32.286  23.649 -23.410  0.00  0.00     0.032 A 
ENDBRANCH   3  26
TORSDOF 5
ENDMDL
