MODEL 1
REMARK VINA RESULT:      32.5      0.000      0.000
REMARK  2 active torsions:
REMARK  status: ('A' for Active; 'I' for Inactive)
REMARK    1  A    between atoms: S_12  and  C_3 
REMARK    2  A    between atoms: C_14  and  S_12 
ROOT
ATOM      1  N   UNL d   1      14.880  16.433  -3.746  0.00  0.00    -0.195 NA
ATOM      2  C   UNL d   1      14.717  15.800  -3.245  0.00  0.00     0.086 C 
ATOM      3  C   UNL d   1      14.556  15.173  -2.733  0.00  0.00     0.170 C 
ENDROOT
BRANCH   3   4
ATOM      4  S   UNL d   1      14.342  14.441  -3.048  0.00  0.00    -0.060 SA
BRANCH   4   5
ATOM      5  C   UNL d   1      14.307  13.775  -2.558  0.00  0.00     0.177 A 
ATOM      6  N   UNL d   1      13.939  13.087  -2.825  0.00  0.00    -0.270 N 
ATOM      7  C   UNL d   1      13.899  12.418  -2.346  0.00  0.00     0.151 A 
ATOM      8  C   UNL d   1      13.563  12.897  -3.539  0.00  0.00     0.085 A 
ATOM      9  N   UNL d   1      13.506  11.823  -2.751  0.00  0.00    -0.227 NA
ATOM     10  C   UNL d   1      14.235  12.449  -1.590  0.00  0.00     0.052 A 
ATOM     11  C   UNL d   1      13.296  12.117  -3.491  0.00  0.00     0.099 A 
ATOM     12  C   UNL d   1      12.900  11.780  -4.127  0.00  0.00     0.021 A 
ATOM     13  C   UNL d   1      12.770  12.224  -4.809  0.00  0.00     0.002 A 
ATOM     14  C   UNL d   1      13.036  13.003  -4.858  0.00  0.00     0.002 A 
ATOM     15  C   UNL d   1      13.432  13.337  -4.221  0.00  0.00     0.019 A 
ATOM     16  C   UNL d   1      14.200  11.785  -1.104  0.00  0.00     0.004 A 
ATOM     17  C   UNL d   1      14.603  13.138  -1.323  0.00  0.00     0.086 A 
ATOM     18  C   UNL d   1      14.533  11.807  -0.346  0.00  0.00     0.000 A 
ATOM     19  C   UNL d   1      14.901  12.496  -0.079  0.00  0.00     0.002 A 
ATOM     20  C   UNL d   1      14.935  13.162  -0.569  0.00  0.00     0.019 A 
ATOM     21  N   UNL d   1      14.639  13.801  -1.809  0.00  0.00    -0.222 NA
ENDBRANCH   4   5
ENDBRANCH   3   4
TORSDOF 2
ENDMDL
