MODEL 1
REMARK VINA RESULT:      86.9      0.000      0.000
REMARK  9 active torsions:
REMARK  status: ('A' for Active; 'I' for Inactive)
REMARK    1  A    between atoms: N_5  and  S_1 
REMARK    2  A    between atoms: C_8  and  S_1 
REMARK    3  A    between atoms: C_2  and  N_10 
REMARK    4  A    between atoms: C_9  and  N_5 
REMARK    5  A    between atoms: C_25  and  N_5 
REMARK    6  A    between atoms: C_13  and  C_9 
REMARK    7  A    between atoms: N_10  and  O_14 
REMARK    8  A    between atoms: C_17  and  C_13 
REMARK    9  A    between atoms: O_14  and  C_17 
ROOT
ATOM      1  C   UNL d   1      60.582  48.256  50.677  0.00  0.00     0.240 C 
ATOM      2  O   UNL d   1      60.146  47.677  50.274  0.00  0.00    -0.283 OA
ENDROOT
BRANCH   1   3
ATOM      3  C   UNL d   1      61.148  47.657  50.777  0.00  0.00     0.136 C 
BRANCH   3   4
ATOM      4  N   UNL d   1      60.949  46.983  51.214  0.00  0.00    -0.226 N 
BRANCH   4   5
ATOM      5  S   UNL d   1      61.043  46.228  50.883  0.00  0.00     0.271 S 
ATOM      6  O   UNL d   1      60.672  46.054  51.605  0.00  0.00    -0.200 OA
ATOM      7  O   UNL d   1      61.403  46.184  50.143  0.00  0.00    -0.200 OA
BRANCH   5   8
ATOM      8  C   UNL d   1      61.240  45.619  50.370  0.00  0.00     0.104 A 
ATOM      9  C   UNL d   1      61.680  45.776  49.694  0.00  0.00     0.013 A 
ATOM     10  C   UNL d   1      61.878  45.159  49.177  0.00  0.00     0.001 A 
ATOM     11  C   UNL d   1      61.630  44.384  49.343  0.00  0.00     0.000 A 
ATOM     12  C   UNL d   1      61.191  44.285  50.035  0.00  0.00     0.001 A 
ATOM     13  C   UNL d   1      61.816  43.753  48.842  0.00  0.00     0.000 C 
ATOM     14  C   UNL d   1      60.976  44.867  50.570  0.00  0.00     0.013 A 
ENDBRANCH   5   8
ENDBRANCH   4   5
BRANCH   4  15
ATOM     15  C   UNL d   1      60.651  46.891  51.979  0.00  0.00     0.092 C 
ATOM     16  C   UNL d   1      60.733  47.503  52.527  0.00  0.00     0.021 C 
ENDBRANCH   4  15
ENDBRANCH   3   4
ENDBRANCH   1   3
BRANCH   1  17
ATOM     17  C   UNL d   1      60.285  49.019  50.766  0.00  0.00     0.193 C 
BRANCH  17  18
ATOM     18  O   UNL d   1      59.513  49.187  50.522  0.00  0.00    -0.206 OA
BRANCH  18  19
ATOM     19  N   UNL d   1      59.037  49.687  50.970  0.00  0.00    -0.126 NA
BRANCH  19  20
ATOM     20  C   UNL d   1      58.213  49.635  50.919  0.00  0.00     0.108 A 
ATOM     21  C   UNL d   1      57.772  49.565  50.222  0.00  0.00     0.020 A 
ATOM     22  C   UNL d   1      56.974  49.531  50.428  0.00  0.00     0.002 A 
ATOM     23  C   UNL d   1      57.994  49.529  49.428  0.00  0.00     0.002 A 
ATOM     24  C   UNL d   1      56.398  49.460  49.840  0.00  0.00     0.000 A 
ATOM     25  C   UNL d   1      56.912  49.579  51.246  0.00  0.00     0.002 A 
ATOM     26  C   UNL d   1      56.621  49.423  49.047  0.00  0.00     0.000 A 
ATOM     27  C   UNL d   1      57.419  49.457  48.840  0.00  0.00     0.000 A 
ATOM     28  C   UNL d   1      57.678  49.643  51.547  0.00  0.00     0.020 A 
ATOM     29  C   UNL d   1      56.269  49.573  51.761  0.00  0.00     0.000 A 
ATOM     30  C   UNL d   1      57.801  49.701  52.359  0.00  0.00     0.002 A 
ATOM     31  C   UNL d   1      57.158  49.695  52.874  0.00  0.00     0.000 A 
ATOM     32  C   UNL d   1      56.388  49.631  52.573  0.00  0.00     0.000 A 
ENDBRANCH  19  20
ENDBRANCH  18  19
ENDBRANCH  17  18
ENDBRANCH   1  17
TORSDOF 9
ENDMDL
