MODEL 1
REMARK VINA RESULT:      -4.5      0.000      0.000
REMARK  5 active torsions:
REMARK  status: ('A' for Active; 'I' for Inactive)
REMARK    1  A    between atoms: N_10  and  C_2 
REMARK    2  A    between atoms: C_14  and  C_3 
REMARK    3  A    between atoms: C_5  and  S_13 
REMARK       I    between atoms: C_12  and  N_10 
REMARK    4  A    between atoms: C_16  and  C_12 
REMARK    5  A    between atoms: S_13  and  C_16 
ROOT
ATOM      1  N   UNL d   1      58.696  -0.542  30.228  0.00  0.00    -0.051 NA
ATOM      2  C   UNL d   1      58.145   0.068  30.251  0.00  0.00     0.760 A 
ATOM      3  C   UNL d   1      58.885  -0.677  29.443  0.00  0.00     0.147 A 
ATOM      4  N   UNL d   1      57.996   0.307  29.489  0.00  0.00    -0.019 NA
ATOM      5  S   UNL d   1      58.454  -0.155  28.987  0.00  0.00     0.052 SA
ENDROOT
BRANCH   2   6
ATOM      6  N   UNL d   1      57.795   0.391  30.941  0.00  0.00    -0.018 NA
ATOM      7  C   UNL d   1      57.225  -0.029  31.351  0.00  0.00     0.302 C 
ATOM      8  O   UNL d   1      56.996  -0.770  31.083  0.00  0.00    -0.264 OA
BRANCH   7   9
ATOM      9  C   UNL d   1      56.880   0.288  32.030  0.00  0.00     0.100 C 
BRANCH   9  10
ATOM     10  S   UNL d   1      56.470  -0.207  32.551  0.00  0.00    -0.054 SA
BRANCH  10  11
ATOM     11  C   UNL d   1      56.106   0.107  33.222  0.00  0.00     0.164 A 
ATOM     12  S   UNL d   1      55.300   0.142  33.359  0.00  0.00    -0.039 SA
ATOM     13  C   UNL d   1      55.183   0.499  34.099  0.00  0.00     0.134 A 
ATOM     14  C   UNL d   1      54.451   0.646  34.459  0.00  0.00     0.030 C 
ATOM     15  N   UNL d   1      55.924   0.682  34.414  0.00  0.00    -0.140 NA
ATOM     16  N   UNL d   1      56.498   0.440  33.873  0.00  0.00    -0.134 NA
ENDBRANCH  10  11
ENDBRANCH   9  10
ENDBRANCH   7   9
ENDBRANCH   2   6
BRANCH   3  17
ATOM     17  C   UNL d   1      59.410  -1.231  29.128  0.00  0.00     0.026 A 
ATOM     18  C   UNL d   1      60.220  -1.080  29.135  0.00  0.00     0.002 A 
ATOM     19  C   UNL d   1      60.746  -1.637  28.818  0.00  0.00     0.000 A 
ATOM     20  C   UNL d   1      60.468  -2.337  28.498  0.00  0.00     0.000 A 
ATOM     21  C   UNL d   1      59.659  -2.488  28.491  0.00  0.00     0.000 A 
ATOM     22  C   UNL d   1      59.124  -1.932  28.808  0.00  0.00     0.002 A 
ENDBRANCH   3  17
TORSDOF 5
ENDMDL
MODEL 2
REMARK VINA RESULT:      -4.2      1.500      5.691
REMARK  5 active torsions:
REMARK  status: ('A' for Active; 'I' for Inactive)
REMARK    1  A    between atoms: N_10  and  C_2 
REMARK    2  A    between atoms: C_14  and  C_3 
REMARK    3  A    between atoms: C_5  and  S_13 
REMARK       I    between atoms: C_12  and  N_10 
REMARK    4  A    between atoms: C_16  and  C_12 
REMARK    5  A    between atoms: S_13  and  C_16 
ROOT
ATOM      1  N   UNL d   1      56.307   0.073  32.417  0.00  0.00    -0.051 NA
ATOM      2  C   UNL d   1      56.557  -0.503  31.886  0.00  0.00     0.760 A 
ATOM      3  C   UNL d   1      55.954  -0.309  33.049  0.00  0.00     0.147 A 
ATOM      4  N   UNL d   1      56.361  -1.232  32.187  0.00  0.00    -0.019 NA
ATOM      5  S   UNL d   1      55.987  -1.113  32.909  0.00  0.00     0.052 SA
ENDROOT
BRANCH   2   6
ATOM      6  N   UNL d   1      56.948  -0.365  31.157  0.00  0.00    -0.018 NA
ATOM      7  C   UNL d   1      57.682  -0.004  31.144  0.00  0.00     0.302 C 
ATOM      8  O   UNL d   1      58.036   0.223  31.849  0.00  0.00    -0.264 OA
BRANCH   7   9
ATOM      9  C   UNL d   1      58.068   0.132  30.427  0.00  0.00     0.100 C 
BRANCH   9  10
ATOM     10  S   UNL d   1      58.788   0.539  30.420  0.00  0.00    -0.054 SA
BRANCH  10  11
ATOM     11  C   UNL d   1      59.319   0.433  29.796  0.00  0.00     0.164 A 
ATOM     12  S   UNL d   1      60.049   0.066  29.844  0.00  0.00    -0.039 SA
ATOM     13  C   UNL d   1      60.392   0.084  29.088  0.00  0.00     0.134 A 
ATOM     14  C   UNL d   1      61.133  -0.226  28.881  0.00  0.00     0.030 C 
ATOM     15  N   UNL d   1      59.865   0.464  28.577  0.00  0.00    -0.140 NA
ATOM     16  N   UNL d   1      59.199   0.681  29.013  0.00  0.00    -0.134 NA
ENDBRANCH  10  11
ENDBRANCH   9  10
ENDBRANCH   7   9
ENDBRANCH   2   6
BRANCH   3  17
ATOM     17  C   UNL d   1      55.615   0.021  33.726  0.00  0.00     0.026 A 
ATOM     18  C   UNL d   1      56.046   0.055  34.427  0.00  0.00     0.002 A 
ATOM     19  C   UNL d   1      55.704   0.386  35.106  0.00  0.00     0.000 A 
ATOM     20  C   UNL d   1      54.941   0.682  35.086  0.00  0.00     0.000 A 
ATOM     21  C   UNL d   1      54.510   0.649  34.385  0.00  0.00     0.000 A 
ATOM     22  C   UNL d   1      54.848   0.316  33.699  0.00  0.00     0.002 A 
ENDBRANCH   3  17
TORSDOF 5
ENDMDL
MODEL 3
REMARK VINA RESULT:      -3.9      1.434      5.724
REMARK  5 active torsions:
REMARK  status: ('A' for Active; 'I' for Inactive)
REMARK    1  A    between atoms: N_10  and  C_2 
REMARK    2  A    between atoms: C_14  and  C_3 
REMARK    3  A    between atoms: C_5  and  S_13 
REMARK       I    between atoms: C_12  and  N_10 
REMARK    4  A    between atoms: C_16  and  C_12 
REMARK    5  A    between atoms: S_13  and  C_16 
ROOT
ATOM      1  N   UNL d   1      56.563  -0.610  32.140  0.00  0.00    -0.051 NA
ATOM      2  C   UNL d   1      57.036  -0.497  31.477  0.00  0.00     0.760 A 
ATOM      3  C   UNL d   1      56.456   0.119  32.496  0.00  0.00     0.147 A 
ATOM      4  N   UNL d   1      57.219   0.293  31.424  0.00  0.00    -0.019 NA
ATOM      5  S   UNL d   1      56.860   0.676  32.056  0.00  0.00     0.052 SA
ENDROOT
BRANCH   2   6
ATOM      6  N   UNL d   1      57.289  -1.093  30.943  0.00  0.00    -0.018 NA
ATOM      7  C   UNL d   1      57.901  -0.947  30.420  0.00  0.00     0.302 C 
ATOM      8  O   UNL d   1      58.267  -0.212  30.419  0.00  0.00    -0.264 OA
BRANCH   7   9
ATOM      9  C   UNL d   1      58.150  -1.532  29.895  0.00  0.00     0.100 C 
BRANCH   9  10
ATOM     10  S   UNL d   1      58.884  -1.461  29.520  0.00  0.00    -0.054 SA
BRANCH  10  11
ATOM     11  C   UNL d   1      59.241  -2.122  29.178  0.00  0.00     0.164 A 
ATOM     12  S   UNL d   1      60.044  -2.224  29.057  0.00  0.00    -0.039 SA
ATOM     13  C   UNL d   1      60.155  -2.965  28.700  0.00  0.00     0.134 A 
ATOM     14  C   UNL d   1      60.882  -3.297  28.479  0.00  0.00     0.030 C 
ATOM     15  N   UNL d   1      59.413  -3.315  28.603  0.00  0.00    -0.140 NA
ATOM     16  N   UNL d   1      58.845  -2.795  28.898  0.00  0.00    -0.134 NA
ENDBRANCH  10  11
ENDBRANCH   9  10
ENDBRANCH   7   9
ENDBRANCH   2   6
BRANCH   3  17
ATOM     17  C   UNL d   1      56.026   0.301  33.177  0.00  0.00     0.026 A 
ATOM     18  C   UNL d   1      56.421   0.500  33.872  0.00  0.00     0.002 A 
ATOM     19  C   UNL d   1      55.988   0.682  34.554  0.00  0.00     0.000 A 
ATOM     20  C   UNL d   1      55.169   0.667  34.545  0.00  0.00     0.000 A 
ATOM     21  C   UNL d   1      54.774   0.469  33.851  0.00  0.00     0.000 A 
ATOM     22  C   UNL d   1      55.204   0.284  33.160  0.00  0.00     0.002 A 
ENDBRANCH   3  17
TORSDOF 5
ENDMDL
MODEL 4
REMARK VINA RESULT:      -3.5      1.058      1.409
REMARK  5 active torsions:
REMARK  status: ('A' for Active; 'I' for Inactive)
REMARK    1  A    between atoms: N_10  and  C_2 
REMARK    2  A    between atoms: C_14  and  C_3 
REMARK    3  A    between atoms: C_5  and  S_13 
REMARK       I    between atoms: C_12  and  N_10 
REMARK    4  A    between atoms: C_16  and  C_12 
REMARK    5  A    between atoms: S_13  and  C_16 
ROOT
ATOM      1  N   UNL d   1      58.729  -1.539  29.632  0.00  0.00    -0.051 NA
ATOM      2  C   UNL d   1      58.266  -0.869  29.518  0.00  0.00     0.760 A 
ATOM      3  C   UNL d   1      59.216  -1.619  28.980  0.00  0.00     0.147 A 
ATOM      4  N   UNL d   1      58.465  -0.539  28.802  0.00  0.00    -0.019 NA
ATOM      5  S   UNL d   1      59.055  -1.004  28.468  0.00  0.00     0.052 SA
ENDROOT
BRANCH   2   6
ATOM      6  N   UNL d   1      57.686  -0.574  30.047  0.00  0.00    -0.018 NA
ATOM      7  C   UNL d   1      57.887  -0.015  30.611  0.00  0.00     0.302 C 
ATOM      8  O   UNL d   1      58.661   0.255  30.657  0.00  0.00    -0.264 OA
BRANCH   7   9
ATOM      9  C   UNL d   1      57.317   0.276  31.131  0.00  0.00     0.100 C 
BRANCH   9  10
ATOM     10  S   UNL d   1      57.355   0.077  31.934  0.00  0.00    -0.054 SA
BRANCH  10  11
ATOM     11  C   UNL d   1      56.666   0.044  32.387  0.00  0.00     0.164 A 
ATOM     12  S   UNL d   1      56.375  -0.618  32.770  0.00  0.00    -0.039 SA
ATOM     13  C   UNL d   1      55.673  -0.400  33.156  0.00  0.00     0.134 A 
ATOM     14  C   UNL d   1      55.193  -0.897  33.613  0.00  0.00     0.030 C 
ATOM     15  N   UNL d   1      55.537   0.401  33.006  0.00  0.00    -0.140 NA
ATOM     16  N   UNL d   1      56.151   0.679  32.529  0.00  0.00    -0.134 NA
ENDBRANCH  10  11
ENDBRANCH   9  10
ENDBRANCH   7   9
ENDBRANCH   2   6
BRANCH   3  17
ATOM     17  C   UNL d   1      59.782  -2.201  28.828  0.00  0.00     0.026 A 
ATOM     18  C   UNL d   1      59.561  -2.994  28.809  0.00  0.00     0.002 A 
ATOM     19  C   UNL d   1      60.129  -3.578  28.657  0.00  0.00     0.000 A 
ATOM     20  C   UNL d   1      60.911  -3.373  28.524  0.00  0.00     0.000 A 
ATOM     21  C   UNL d   1      61.132  -2.581  28.543  0.00  0.00     0.000 A 
ATOM     22  C   UNL d   1      60.565  -1.989  28.696  0.00  0.00     0.002 A 
ENDBRANCH   3  17
TORSDOF 5
ENDMDL
