MODEL 1
REMARK VINA RESULT:      -9.9      0.000      0.000
REMARK  2 active torsions:
REMARK  status: ('A' for Active; 'I' for Inactive)
REMARK    1  A    between atoms: C_5  and  N_1 
REMARK    2  A    between atoms: C_7  and  C_5 
ROOT
ATOM      1  N   UNL d   1      53.383  32.030  53.183  0.00  0.00    -0.251 N 
ATOM      2  C   UNL d   1      52.653  32.344  52.976  0.00  0.00     0.378 A 
ATOM      3  O   UNL d   1      52.106  31.726  52.949  0.00  0.00    -0.258 OA
ATOM      4  C   UNL d   1      53.290  31.211  53.285  0.00  0.00     0.092 A 
ATOM      5  C   UNL d   1      52.501  31.026  53.141  0.00  0.00     0.121 A 
ATOM      6  O   UNL d   1      52.488  33.137  52.821  0.00  0.00    -0.237 OA
ATOM      7  C   UNL d   1      53.829  30.624  53.491  0.00  0.00     0.020 A 
ATOM      8  C   UNL d   1      52.248  30.240  53.203  0.00  0.00     0.026 A 
ATOM      9  C   UNL d   1      53.574  29.841  53.553  0.00  0.00     0.002 A 
ATOM     10  C   UNL d   1      52.787  29.649  53.410  0.00  0.00     0.002 A 
ENDROOT
BRANCH   1  11
ATOM     11  C   UNL d   1      54.088  32.451  53.274  0.00  0.00     0.086 C 
BRANCH  11  12
ATOM     12  C   UNL d   1      54.242  32.839  53.977  0.00  0.00     0.028 A 
ATOM     13  C   UNL d   1      54.968  33.220  54.092  0.00  0.00     0.059 A 
ATOM     14 CL   UNL d   1      55.518  33.187  53.469  0.00  0.00    -0.082 Cl
ATOM     15  C   UNL d   1      55.120  33.606  54.797  0.00  0.00     0.011 A 
ATOM     16  C   UNL d   1      54.548  33.620  55.401  0.00  0.00     0.001 A 
ATOM     17  C   UNL d   1      53.823  33.240  55.287  0.00  0.00     0.000 A 
ATOM     18  C   UNL d   1      53.672  32.852  54.578  0.00  0.00     0.002 A 
ENDBRANCH  11  12
ENDBRANCH   1  11
TORSDOF 2
ENDMDL
MODEL 2
REMARK VINA RESULT:      -9.9      1.716      3.191
REMARK  2 active torsions:
REMARK  status: ('A' for Active; 'I' for Inactive)
REMARK    1  A    between atoms: C_5  and  N_1 
REMARK    2  A    between atoms: C_7  and  C_5 
ROOT
ATOM      1  N   UNL d   1      53.142  32.853  53.294  0.00  0.00    -0.251 N 
ATOM      2  C   UNL d   1      53.127  32.033  53.264  0.00  0.00     0.378 A 
ATOM      3  O   UNL d   1      53.547  31.743  53.913  0.00  0.00    -0.258 OA
ATOM      4  C   UNL d   1      53.575  33.076  53.967  0.00  0.00     0.092 A 
ATOM      5  C   UNL d   1      53.824  32.389  54.347  0.00  0.00     0.121 A 
ATOM      6  O   UNL d   1      52.757  31.572  52.688  0.00  0.00    -0.237 OA
ATOM      7  C   UNL d   1      53.767  33.817  54.269  0.00  0.00     0.020 A 
ATOM      8  C   UNL d   1      54.272  32.446  55.041  0.00  0.00     0.026 A 
ATOM      9  C   UNL d   1      54.214  33.871  54.962  0.00  0.00     0.002 A 
ATOM     10  C   UNL d   1      54.466  33.188  55.346  0.00  0.00     0.002 A 
ENDROOT
BRANCH   1  11
ATOM     11  C   UNL d   1      52.790  33.369  52.754  0.00  0.00     0.086 C 
BRANCH  11  12
ATOM     12  C   UNL d   1      51.997  33.555  52.826  0.00  0.00     0.028 A 
ATOM     13  C   UNL d   1      51.675  34.182  52.392  0.00  0.00     0.059 A 
ATOM     14 CL   UNL d   1      52.190  34.602  51.892  0.00  0.00    -0.082 Cl
ATOM     15  C   UNL d   1      50.882  34.366  52.466  0.00  0.00     0.011 A 
ATOM     16  C   UNL d   1      50.394  33.926  52.976  0.00  0.00     0.001 A 
ATOM     17  C   UNL d   1      50.714  33.299  53.410  0.00  0.00     0.000 A 
ATOM     18  C   UNL d   1      51.513  33.116  53.334  0.00  0.00     0.002 A 
ENDBRANCH  11  12
ENDBRANCH   1  11
TORSDOF 2
ENDMDL
MODEL 3
REMARK VINA RESULT:      -9.5      1.167      2.257
REMARK  2 active torsions:
REMARK  status: ('A' for Active; 'I' for Inactive)
REMARK    1  A    between atoms: C_5  and  N_1 
REMARK    2  A    between atoms: C_7  and  C_5 
ROOT
ATOM      1  N   UNL d   1      52.941  32.729  53.160  0.00  0.00    -0.251 N 
ATOM      2  C   UNL d   1      52.580  31.994  53.223  0.00  0.00     0.378 A 
ATOM      3  O   UNL d   1      51.766  32.098  53.129  0.00  0.00    -0.258 OA
ATOM      4  C   UNL d   1      52.348  33.295  53.026  0.00  0.00     0.092 A 
ATOM      5  C   UNL d   1      51.624  32.903  53.008  0.00  0.00     0.121 A 
ATOM      6  O   UNL d   1      52.959  31.274  53.356  0.00  0.00    -0.237 OA
ATOM      7  C   UNL d   1      52.388  34.110  52.921  0.00  0.00     0.020 A 
ATOM      8  C   UNL d   1      50.929  33.335  52.882  0.00  0.00     0.026 A 
ATOM      9  C   UNL d   1      51.693  34.539  52.796  0.00  0.00     0.002 A 
ATOM     10  C   UNL d   1      50.966  34.153  52.776  0.00  0.00     0.002 A 
ENDROOT
BRANCH   1  11
ATOM     11  C   UNL d   1      53.750  32.883  53.219  0.00  0.00     0.086 C 
BRANCH  11  12
ATOM     12  C   UNL d   1      54.087  33.017  53.952  0.00  0.00     0.028 A 
ATOM     13  C   UNL d   1      54.875  33.264  54.010  0.00  0.00     0.059 A 
ATOM     14 CL   UNL d   1      55.295  33.365  53.300  0.00  0.00    -0.082 Cl
ATOM     15  C   UNL d   1      55.209  33.397  54.744  0.00  0.00     0.011 A 
ATOM     16  C   UNL d   1      54.761  33.287  55.436  0.00  0.00     0.001 A 
ATOM     17  C   UNL d   1      53.974  33.040  55.380  0.00  0.00     0.000 A 
ATOM     18  C   UNL d   1      53.639  32.907  54.640  0.00  0.00     0.002 A 
ENDBRANCH  11  12
ENDBRANCH   1  11
TORSDOF 2
ENDMDL
MODEL 4
REMARK VINA RESULT:      -9.4      2.357      3.594
REMARK  2 active torsions:
REMARK  status: ('A' for Active; 'I' for Inactive)
REMARK    1  A    between atoms: C_5  and  N_1 
REMARK    2  A    between atoms: C_7  and  C_5 
ROOT
ATOM      1  N   UNL d   1      53.067  34.506  53.807  0.00  0.00    -0.251 N 
ATOM      2  C   UNL d   1      53.034  35.080  54.394  0.00  0.00     0.378 A 
ATOM      3  O   UNL d   1      53.473  34.814  55.040  0.00  0.00    -0.258 OA
ATOM      4  C   UNL d   1      53.531  33.878  54.091  0.00  0.00     0.092 A 
ATOM      5  C   UNL d   1      53.780  34.070  54.852  0.00  0.00     0.121 A 
ATOM      6  O   UNL d   1      52.632  35.799  54.350  0.00  0.00    -0.237 OA
ATOM      7  C   UNL d   1      53.750  33.164  53.745  0.00  0.00     0.020 A 
ATOM      8  C   UNL d   1      54.256  33.539  55.273  0.00  0.00     0.026 A 
ATOM      9  C   UNL d   1      54.225  32.635  54.167  0.00  0.00     0.002 A 
ATOM     10  C   UNL d   1      54.477  32.822  54.928  0.00  0.00     0.002 A 
ENDROOT
BRANCH   1  11
ATOM     11  C   UNL d   1      52.706  34.542  53.066  0.00  0.00     0.086 C 
BRANCH  11  12
ATOM     12  C   UNL d   1      51.916  34.346  52.988  0.00  0.00     0.028 A 
ATOM     13  C   UNL d   1      51.570  34.296  52.238  0.00  0.00     0.059 A 
ATOM     14 CL   UNL d   1      52.059  34.454  51.584  0.00  0.00    -0.082 Cl
ATOM     15  C   UNL d   1      50.780  34.100  52.163  0.00  0.00     0.011 A 
ATOM     16  C   UNL d   1      50.319  33.948  52.838  0.00  0.00     0.001 A 
ATOM     17  C   UNL d   1      50.662  33.997  53.589  0.00  0.00     0.000 A 
ATOM     18  C   UNL d   1      51.458  34.195  53.662  0.00  0.00     0.002 A 
ENDBRANCH  11  12
ENDBRANCH   1  11
TORSDOF 2
ENDMDL
MODEL 5
REMARK VINA RESULT:      -9.1      1.669      1.956
REMARK  2 active torsions:
REMARK  status: ('A' for Active; 'I' for Inactive)
REMARK    1  A    between atoms: C_5  and  N_1 
REMARK    2  A    between atoms: C_7  and  C_5 
ROOT
ATOM      1  N   UNL d   1      53.708  32.679  53.260  0.00  0.00    -0.251 N 
ATOM      2  C   UNL d   1      54.466  32.496  53.516  0.00  0.00     0.378 A 
ATOM      3  O   UNL d   1      54.503  31.682  53.650  0.00  0.00    -0.258 OA
ATOM      4  C   UNL d   1      53.270  31.974  53.235  0.00  0.00     0.092 A 
ATOM      5  C   UNL d   1      53.762  31.360  53.477  0.00  0.00     0.121 A 
ATOM      6  O   UNL d   1      55.088  33.028  53.621  0.00  0.00    -0.237 OA
ATOM      7  C   UNL d   1      52.488  31.827  53.023  0.00  0.00     0.020 A 
ATOM      8  C   UNL d   1      53.468  30.587  53.506  0.00  0.00     0.026 A 
ATOM      9  C   UNL d   1      52.196  31.054  53.053  0.00  0.00     0.002 A 
ATOM     10  C   UNL d   1      52.685  30.437  53.293  0.00  0.00     0.002 A 
ENDROOT
BRANCH   1  11
ATOM     11  C   UNL d   1      53.427  33.430  53.061  0.00  0.00     0.086 C 
BRANCH  11  12
ATOM     12  C   UNL d   1      53.251  33.968  53.652  0.00  0.00     0.028 A 
ATOM     13  C   UNL d   1      52.830  34.658  53.475  0.00  0.00     0.059 A 
ATOM     14 CL   UNL d   1      52.601  34.771  52.684  0.00  0.00    -0.082 Cl
ATOM     15  C   UNL d   1      52.656  35.194  54.067  0.00  0.00     0.011 A 
ATOM     16  C   UNL d   1      52.899  35.051  54.849  0.00  0.00     0.001 A 
ATOM     17  C   UNL d   1      53.320  34.362  55.028  0.00  0.00     0.000 A 
ATOM     18  C   UNL d   1      53.495  33.823  54.430  0.00  0.00     0.002 A 
ENDBRANCH  11  12
ENDBRANCH   1  11
TORSDOF 2
ENDMDL
MODEL 6
REMARK VINA RESULT:      -8.6      1.615      3.161
REMARK  2 active torsions:
REMARK  status: ('A' for Active; 'I' for Inactive)
REMARK    1  A    between atoms: C_5  and  N_1 
REMARK    2  A    between atoms: C_7  and  C_5 
ROOT
ATOM      1  N   UNL d   1      53.339  32.510  53.143  0.00  0.00    -0.251 N 
ATOM      2  C   UNL d   1      54.009  32.884  53.438  0.00  0.00     0.378 A 
ATOM      3  O   UNL d   1      53.794  33.643  53.681  0.00  0.00    -0.258 OA
ATOM      4  C   UNL d   1      52.704  33.041  53.203  0.00  0.00     0.092 A 
ATOM      5  C   UNL d   1      52.986  33.739  53.535  0.00  0.00     0.121 A 
ATOM      6  O   UNL d   1      54.767  32.562  53.486  0.00  0.00    -0.237 OA
ATOM      7  C   UNL d   1      51.911  32.965  52.994  0.00  0.00     0.020 A 
ATOM      8  C   UNL d   1      52.466  34.371  53.660  0.00  0.00     0.026 A 
ATOM      9  C   UNL d   1      51.394  33.597  53.120  0.00  0.00     0.002 A 
ATOM     10  C   UNL d   1      51.671  34.298  53.452  0.00  0.00     0.002 A 
ENDROOT
BRANCH   1  11
ATOM     11  C   UNL d   1      53.301  31.743  52.840  0.00  0.00     0.086 C 
BRANCH  11  12
ATOM     12  C   UNL d   1      53.271  31.104  53.351  0.00  0.00     0.028 A 
ATOM     13  C   UNL d   1      53.060  30.355  53.069  0.00  0.00     0.059 A 
ATOM     14 CL   UNL d   1      52.884  30.289  52.259  0.00  0.00    -0.082 Cl
ATOM     15  C   UNL d   1      53.030  29.719  53.582  0.00  0.00     0.011 A 
ATOM     16  C   UNL d   1      53.212  29.819  54.387  0.00  0.00     0.001 A 
ATOM     17  C   UNL d   1      53.424  30.567  54.670  0.00  0.00     0.000 A 
ATOM     18  C   UNL d   1      53.453  31.206  54.152  0.00  0.00     0.002 A 
ENDBRANCH  11  12
ENDBRANCH   1  11
TORSDOF 2
ENDMDL
MODEL 7
REMARK VINA RESULT:      -8.5      2.036      2.617
REMARK  2 active torsions:
REMARK  status: ('A' for Active; 'I' for Inactive)
REMARK    1  A    between atoms: C_5  and  N_1 
REMARK    2  A    between atoms: C_7  and  C_5 
ROOT
ATOM      1  N   UNL d   1      52.764  34.073  53.258  0.00  0.00    -0.251 N 
ATOM      2  C   UNL d   1      52.732  34.894  53.265  0.00  0.00     0.378 A 
ATOM      3  O   UNL d   1      51.941  35.121  53.201  0.00  0.00    -0.258 OA
ATOM      4  C   UNL d   1      51.988  33.788  53.188  0.00  0.00     0.092 A 
ATOM      5  C   UNL d   1      51.481  34.436  53.153  0.00  0.00     0.121 A 
ATOM      6  O   UNL d   1      53.375  35.407  53.327  0.00  0.00    -0.237 OA
ATOM      7  C   UNL d   1      51.692  33.021  53.153  0.00  0.00     0.020 A 
ATOM      8  C   UNL d   1      50.666  34.313  53.081  0.00  0.00     0.026 A 
ATOM      9  C   UNL d   1      50.878  32.901  53.082  0.00  0.00     0.002 A 
ATOM     10  C   UNL d   1      50.366  33.545  53.046  0.00  0.00     0.002 A 
ENDROOT
BRANCH   1  11
ATOM     11  C   UNL d   1      53.446  33.610  53.311  0.00  0.00     0.086 C 
BRANCH  11  12
ATOM     12  C   UNL d   1      53.818  33.515  54.033  0.00  0.00     0.028 A 
ATOM     13  C   UNL d   1      54.478  33.020  54.099  0.00  0.00     0.059 A 
ATOM     14 CL   UNL d   1      54.736  32.635  53.408  0.00  0.00    -0.082 Cl
ATOM     15  C   UNL d   1      54.848  32.926  54.822  0.00  0.00     0.011 A 
ATOM     16  C   UNL d   1      54.565  33.325  55.494  0.00  0.00     0.001 A 
ATOM     17  C   UNL d   1      53.906  33.820  55.430  0.00  0.00     0.000 A 
ATOM     18  C   UNL d   1      53.535  33.913  54.701  0.00  0.00     0.002 A 
ENDBRANCH  11  12
ENDBRANCH   1  11
TORSDOF 2
ENDMDL
