MODEL 1
REMARK VINA RESULT:      62.5      0.000      0.000
REMARK  6 active torsions:
REMARK  status: ('A' for Active; 'I' for Inactive)
REMARK    1  A    between atoms: C_4  and  C_1 
REMARK    2  A    between atoms: C_7  and  C_4 
REMARK    3  A    between atoms: N_10  and  C_7 
REMARK    4  A    between atoms: C_11  and  N_10 
REMARK    5  A    between atoms: O_14  and  C_12 
REMARK    6  A    between atoms: C_19  and  O_14 
ROOT
ATOM      1  C   UNL d   1      60.025  49.048  50.796  0.00  0.00     0.122 C 
ATOM      2  C   UNL d   1      60.157  49.373  51.540  0.00  0.00     0.106 C 
ATOM      3  N   UNL d   1      60.288  49.699  52.285  0.00  0.00    -0.191 NA
ENDROOT
BRANCH   1   4
ATOM      4  C   UNL d   1      60.498  48.429  50.526  0.00  0.00     0.159 A 
ATOM      5  N   UNL d   1      60.321  47.623  50.573  0.00  0.00    -0.226 NA
ATOM      6  C   UNL d   1      60.942  47.205  50.240  0.00  0.00     0.099 A 
ATOM      7  C   UNL d   1      61.073  46.392  50.132  0.00  0.00     0.021 A 
ATOM      8  C   UNL d   1      61.507  47.748  49.984  0.00  0.00     0.083 A 
ATOM      9  C   UNL d   1      61.770  46.134  49.769  0.00  0.00     0.002 A 
ATOM     10  C   UNL d   1      62.335  46.677  49.513  0.00  0.00     0.002 A 
ATOM     11  C   UNL d   1      62.210  47.484  49.618  0.00  0.00     0.019 A 
ATOM     12  N   UNL d   1      61.238  48.503  50.158  0.00  0.00    -0.287 N 
ATOM     13  C   UNL d   1      61.627  49.220  50.000  0.00  0.00     0.101 C 
ENDBRANCH   1   4
BRANCH   1  14
ATOM     14  C   UNL d   1      59.421  49.343  50.320  0.00  0.00     0.112 C 
BRANCH  14  15
ATOM     15  N   UNL d   1      58.680  49.503  50.646  0.00  0.00    -0.241 NA
BRANCH  15  16
ATOM     16  C   UNL d   1      58.015  49.553  50.155  0.00  0.00     0.104 A 
ATOM     17  C   UNL d   1      57.263  49.655  50.479  0.00  0.00     0.118 A 
ATOM     18  C   UNL d   1      56.604  49.705  49.987  0.00  0.00     0.026 A 
ATOM     19  C   UNL d   1      56.698  49.653  49.166  0.00  0.00     0.002 A 
ATOM     20  C   UNL d   1      57.459  49.549  48.834  0.00  0.00     0.002 A 
ATOM     21  C   UNL d   1      58.115  49.501  49.337  0.00  0.00     0.021 A 
BRANCH  17  22
ATOM     22  O   UNL d   1      57.175  49.706  51.291  0.00  0.00    -0.304 OA
BRANCH  22  23
ATOM     23  C   UNL d   1      56.775  49.109  51.697  0.00  0.00     0.123 C 
ATOM     24  C   UNL d   1      56.111  49.285  52.146  0.00  0.00     0.029 C 
ENDBRANCH  22  23
ENDBRANCH  17  22
ENDBRANCH  15  16
ENDBRANCH  14  15
ENDBRANCH   1  14
TORSDOF 6
ENDMDL
