MODEL 1
REMARK VINA RESULT:     102.2      0.000      0.000
REMARK  5 active torsions:
REMARK  status: ('A' for Active; 'I' for Inactive)
REMARK    1  A    between atoms: N_2  and  C_14 
REMARK    2  A    between atoms: C_17  and  N_4 
REMARK    3  A    between atoms: C_15  and  C_9 
REMARK    4  A    between atoms: C_14  and  O_16 
REMARK    5  A    between atoms: O_16  and  C_15 
ROOT
ATOM      1  C   UNL d   1     -56.327-102.504 -39.249  0.00  0.00     0.114 A 
ATOM      2  C   UNL d   1     -57.001-102.544 -39.722  0.00  0.00     0.044 A 
ATOM      3  N   UNL d   1     -56.569-102.529 -38.465  0.00  0.00    -0.224 N 
ATOM      4  N   UNL d   1     -57.385-102.584 -38.448  0.00  0.00    -0.165 NA
ATOM      5  S   UNL d   1     -55.683-102.455 -39.739  0.00  0.00    -0.062 SA
ATOM      6  C   UNL d   1     -55.942-102.464 -40.519  0.00  0.00     0.094 A 
ATOM      7  C   UNL d   1     -56.768-102.520 -40.499  0.00  0.00     0.015 A 
ATOM      8  C   UNL d   1     -57.659-102.594 -39.218  0.00  0.00     0.103 A 
ATOM      9  C   UNL d   1     -58.441-102.644 -39.457  0.00  0.00     0.022 C 
ENDROOT
BRANCH   6  10
ATOM     10  C   UNL d   1     -55.471-102.424 -41.191  0.00  0.00     0.307 C 
ATOM     11  O   UNL d   1     -54.737-102.043 -41.159  0.00  0.00    -0.258 OA
BRANCH  10  12
ATOM     12  O   UNL d   1     -55.729-102.765 -41.899  0.00  0.00    -0.252 OA
BRANCH  12  13
ATOM     13  C   UNL d   1     -56.251-102.351 -42.390  0.00  0.00     0.216 C 
BRANCH  13  14
ATOM     14  N   UNL d   1     -55.963-101.944 -43.050  0.00  0.00    -0.218 N 
ATOM     15  C   UNL d   1     -55.344-102.186 -43.530  0.00  0.00     0.269 A 
ATOM     16  C   UNL d   1     -55.239-101.618 -44.123  0.00  0.00     0.061 A 
ATOM     17  O   UNL d   1     -54.897-102.879 -43.442  0.00  0.00    -0.267 OA
ATOM     18  C   UNL d   1     -54.711-101.561 -44.752  0.00  0.00     0.005 A 
ATOM     19  C   UNL d   1     -55.800-101.024 -44.002  0.00  0.00     0.061 A 
ATOM     20  C   UNL d   1     -54.742-100.918 -45.259  0.00  0.00     0.000 A 
ATOM     21  C   UNL d   1     -55.303-100.324 -45.139  0.00  0.00     0.000 A 
ATOM     22  C   UNL d   1     -55.835-100.372 -44.511  0.00  0.00     0.005 A 
ATOM     23  C   UNL d   1     -56.255-101.222 -43.335  0.00  0.00     0.269 A 
ATOM     24  O   UNL d   1     -56.874-100.786 -43.017  0.00  0.00    -0.267 OA
ENDBRANCH  13  14
ENDBRANCH  12  13
ENDBRANCH  10  12
ENDBRANCH   6  10
BRANCH   3  25
ATOM     25  C   UNL d   1     -56.073-102.503 -37.806  0.00  0.00     0.083 A 
ATOM     26  C   UNL d   1     -55.351-102.115 -37.858  0.00  0.00     0.019 A 
ATOM     27  C   UNL d   1     -54.856-102.089 -37.199  0.00  0.00     0.002 A 
ATOM     28  C   UNL d   1     -55.081-102.451 -36.489  0.00  0.00     0.000 A 
ATOM     29  C   UNL d   1     -55.814-102.843 -36.444  0.00  0.00     0.002 A 
ATOM     30  C   UNL d   1     -56.310-102.870 -37.099  0.00  0.00     0.019 A 
ENDBRANCH   3  25
TORSDOF 5
ENDMDL
MODEL 2
REMARK VINA RESULT:     103.2      2.154      3.338
REMARK  5 active torsions:
REMARK  status: ('A' for Active; 'I' for Inactive)
REMARK    1  A    between atoms: N_2  and  C_14 
REMARK    2  A    between atoms: C_17  and  N_4 
REMARK    3  A    between atoms: C_15  and  C_9 
REMARK    4  A    between atoms: C_14  and  O_16 
REMARK    5  A    between atoms: O_16  and  C_15 
ROOT
ATOM      1  C   UNL d   1     -55.358-101.506 -41.242  0.00  0.00     0.114 A 
ATOM      2  C   UNL d   1     -55.172-101.669 -42.029  0.00  0.00     0.044 A 
ATOM      3  N   UNL d   1     -55.293-102.206 -40.819  0.00  0.00    -0.224 N 
ATOM      4  N   UNL d   1     -55.068-102.800 -41.335  0.00  0.00    -0.165 NA
ATOM      5  S   UNL d   1     -55.535-100.717 -41.187  0.00  0.00    -0.062 SA
ATOM      6  C   UNL d   1     -55.463-100.377 -41.932  0.00  0.00     0.094 A 
ATOM      7  C   UNL d   1     -55.235-100.980 -42.452  0.00  0.00     0.015 A 
ATOM      8  C   UNL d   1     -54.991-102.478 -42.081  0.00  0.00     0.103 A 
ATOM      9  C   UNL d   1     -54.775-102.875 -42.764  0.00  0.00     0.022 C 
ENDROOT
BRANCH   6  10
ATOM     10  C   UNL d   1     -55.592 -99.589 -42.125  0.00  0.00     0.307 C 
ATOM     11  O   UNL d   1     -55.037 -99.014 -41.906  0.00  0.00    -0.258 OA
BRANCH  10  12
ATOM     12  O   UNL d   1     -56.274 -99.368 -42.536  0.00  0.00    -0.252 OA
BRANCH  12  13
ATOM     13  C   UNL d   1     -56.250 -99.280 -43.359  0.00  0.00     0.216 C 
BRANCH  13  14
ATOM     14  N   UNL d   1     -56.954 -99.203 -43.786  0.00  0.00    -0.218 N 
ATOM     15  C   UNL d   1     -57.693 -99.048 -43.469  0.00  0.00     0.269 A 
ATOM     16  C   UNL d   1     -58.240 -99.016 -44.090  0.00  0.00     0.061 A 
ATOM     17  O   UNL d   1     -57.870 -98.941 -42.666  0.00  0.00    -0.267 OA
ATOM     18  C   UNL d   1     -59.052 -98.882 -44.111  0.00  0.00     0.005 A 
ATOM     19  C   UNL d   1     -57.828 -99.153 -44.794  0.00  0.00     0.061 A 
ATOM     20  C   UNL d   1     -59.452 -98.884 -44.826  0.00  0.00     0.000 A 
ATOM     21  C   UNL d   1     -59.040 -99.021 -45.529  0.00  0.00     0.000 A 
ATOM     22  C   UNL d   1     -58.227 -99.156 -45.518  0.00  0.00     0.005 A 
ATOM     23  C   UNL d   1     -57.025 -99.270 -44.610  0.00  0.00     0.269 A 
ATOM     24  O   UNL d   1     -56.419 -99.423 -45.142  0.00  0.00    -0.267 OA
ENDBRANCH  13  14
ENDBRANCH  12  13
ENDBRANCH  10  12
ENDBRANCH   6  10
BRANCH   3  25
ATOM     25  C   UNL d   1     -55.430-102.295 -40.010  0.00  0.00     0.083 A 
ATOM     26  C   UNL d   1     -56.188-102.465 -39.745  0.00  0.00     0.019 A 
ATOM     27  C   UNL d   1     -56.326-102.555 -38.936  0.00  0.00     0.002 A 
ATOM     28  C   UNL d   1     -55.706-102.475 -38.394  0.00  0.00     0.000 A 
ATOM     29  C   UNL d   1     -54.940-102.303 -38.670  0.00  0.00     0.002 A 
ATOM     30  C   UNL d   1     -54.800-102.213 -39.474  0.00  0.00     0.019 A 
ENDBRANCH   3  25
TORSDOF 5
ENDMDL
