MODEL 1
REMARK VINA RESULT:      52.7      0.000      0.000
REMARK  4 active torsions:
REMARK  status: ('A' for Active; 'I' for Inactive)
REMARK    1  A    between atoms: C_11  and  N_2 
REMARK    2  A    between atoms: C_9  and  C_3 
REMARK    3  A    between atoms: C_12  and  C_11 
REMARK    4  A    between atoms: O_19  and  C_16 
ROOT
ATOM      1  N   UNL d   1     -54.712-100.482 -42.399  0.00  0.00    -0.206 NA
ATOM      2  N   UNL d   1     -54.788-101.648 -43.039  0.00  0.00    -0.273 N 
ATOM      3  C   UNL d   1     -54.745-101.298 -42.292  0.00  0.00     0.151 A 
ATOM      4  C   UNL d   1     -54.781-101.052 -43.603  0.00  0.00     0.185 A 
ATOM      5  C   UNL d   1     -54.734-100.325 -43.209  0.00  0.00     0.199 A 
ATOM      6  N   UNL d   1     -54.811-101.063 -44.440  0.00  0.00    -0.224 NA
ATOM      7  N   UNL d   1     -54.717 -99.629 -43.635  0.00  0.00    -0.223 NA
ATOM      8  C   UNL d   1     -54.794-100.353 -44.860  0.00  0.00     0.101 A 
ATOM      9  C   UNL d   1     -54.747 -99.635 -44.456  0.00  0.00     0.101 A 
ATOM     10  C   UNL d   1     -54.824-100.366 -45.686  0.00  0.00     0.021 A 
ATOM     11  C   UNL d   1     -54.730 -98.933 -44.880  0.00  0.00     0.021 A 
ATOM     12  C   UNL d   1     -54.759 -98.937 -45.698  0.00  0.00     0.002 A 
ATOM     13  C   UNL d   1     -54.806 -99.656 -46.106  0.00  0.00     0.002 A 
ENDROOT
BRANCH   3  14
ATOM     14  C   UNL d   1     -54.738-101.697 -41.578  0.00  0.00     0.035 A 
ATOM     15  C   UNL d   1     -54.743-102.506 -41.560  0.00  0.00     0.005 A 
ATOM     16  C   UNL d   1     -54.736-102.880 -40.855  0.00  0.00     0.024 A 
ATOM     17  C   UNL d   1     -54.723-102.447 -40.148  0.00  0.00     0.094 A 
ATOM     18  C   UNL d   1     -54.718-101.651 -40.163  0.00  0.00     0.024 A 
ATOM     19  C   UNL d   1     -54.725-101.265 -40.871  0.00  0.00     0.005 A 
BRANCH  17  20
ATOM     20  O   UNL d   1     -54.716-102.848 -39.462  0.00  0.00    -0.328 OA
ATOM     21  C   UNL d   1     -54.923-102.395 -38.575  0.00  0.00     0.181 C 
ENDBRANCH  17  20
ENDBRANCH   3  14
BRANCH   2  22
ATOM     22  C   UNL d   1     -54.830-102.461 -43.193  0.00  0.00     0.083 C 
BRANCH  22  23
ATOM     23  C   UNL d   1     -54.734-102.742 -43.960  0.00  0.00     0.019 C 
ATOM     24  C   UNL d   1     -55.225-102.475 -44.567  0.00  0.00     0.002 C 
ENDBRANCH  22  23
ENDBRANCH   2  22
TORSDOF 4
ENDMDL
