MODEL 1
REMARK VINA RESULT:      -3.8      0.000      0.000
REMARK  3 active torsions:
REMARK  status: ('A' for Active; 'I' for Inactive)
REMARK    1  A    between atoms: C_2  and  C_1 
REMARK    2  A    between atoms: C_3  and  C_1 
REMARK       I    between atoms: N_4  and  C_2 
REMARK    3  A    between atoms: C_6  and  N_4 
ROOT
ATOM      1  C   UNL d   1      58.958  -0.460  29.514  0.00  0.00     0.150 A 
ATOM      2  O   UNL d   1      60.461   0.216  29.635  0.00  0.00    -0.304 OA
ATOM      3  C   UNL d   1      59.039   0.324  29.766  0.00  0.00     0.019 A 
ATOM      4  C   UNL d   1      59.620  -0.897  29.325  0.00  0.00     0.019 A 
ATOM      5  C   UNL d   1      60.377  -0.556  29.386  0.00  0.00     0.119 A 
ATOM      6  C   UNL d   1      59.793   0.661  29.826  0.00  0.00     0.119 A 
ENDROOT
BRANCH   1   7
ATOM      7  C   UNL d   1      58.286  -0.017  29.705  0.00  0.00     0.315 C 
ATOM      8  N   UNL d   1      57.972  -0.040  30.468  0.00  0.00    -0.367 NA
ATOM      9  O   UNL d   1      57.931   0.449  29.127  0.00  0.00    -0.255 OA
BRANCH   8  10
ATOM     10  C   UNL d   1      57.655  -0.058  31.226  0.00  0.00     0.135 A 
ATOM     11  C   UNL d   1      56.962  -0.468  31.344  0.00  0.00     0.032 A 
ATOM     12  C   UNL d   1      56.636  -0.489  32.115  0.00  0.00     0.003 A 
ATOM     13  C   UNL d   1      55.931  -0.905  32.241  0.00  0.00     0.000 C 
ATOM     14  C   UNL d   1      57.005  -0.113  32.710  0.00  0.00     0.000 A 
ATOM     15  C   UNL d   1      57.695   0.295  32.591  0.00  0.00     0.003 A 
ATOM     16  C   UNL d   1      58.017   0.319  31.845  0.00  0.00     0.032 A 
ATOM     17  C   UNL d   1      58.071   0.682  33.212  0.00  0.00     0.000 C 
ENDBRANCH   8  10
ENDBRANCH   1   7
BRANCH   1  18
ATOM     18  C   UNL d   1      58.873  -1.245  29.261  0.00  0.00     0.024 A 
ATOM     19  S   UNL d   1      58.641  -1.502  28.506  0.00  0.00    -0.090 SA
ATOM     20  C   UNL d   1      58.629  -2.326  28.495  0.00  0.00     0.035 A 
ATOM     21  C   UNL d   1      58.852  -2.601  29.236  0.00  0.00     0.007 A 
ATOM     22  C   UNL d   1      59.004  -1.931  29.714  0.00  0.00     0.004 A 
ENDBRANCH   1  18
TORSDOF 3
ENDMDL
MODEL 2
REMARK VINA RESULT:      -3.1      0.961      1.977
REMARK  3 active torsions:
REMARK  status: ('A' for Active; 'I' for Inactive)
REMARK    1  A    between atoms: C_2  and  C_1 
REMARK    2  A    between atoms: C_3  and  C_1 
REMARK       I    between atoms: N_4  and  C_2 
REMARK    3  A    between atoms: C_6  and  N_4 
ROOT
ATOM      1  C   UNL d   1      59.019  -0.809  29.466  0.00  0.00     0.150 A 
ATOM      2  O   UNL d   1      59.174  -2.431  29.190  0.00  0.00    -0.304 OA
ATOM      3  C   UNL d   1      58.347  -1.291  29.451  0.00  0.00     0.019 A 
ATOM      4  C   UNL d   1      59.757  -1.136  29.345  0.00  0.00     0.019 A 
ATOM      5  C   UNL d   1      59.834  -1.953  29.206  0.00  0.00     0.119 A 
ATOM      6  C   UNL d   1      58.426  -2.103  29.312  0.00  0.00     0.119 A 
ENDROOT
BRANCH   1   7
ATOM      7  C   UNL d   1      58.271  -0.477  29.589  0.00  0.00     0.315 C 
ATOM      8  N   UNL d   1      57.948  -0.443  30.347  0.00  0.00    -0.367 NA
ATOM      9  O   UNL d   1      57.850  -0.182  28.947  0.00  0.00    -0.255 OA
BRANCH   8  10
ATOM     10  C   UNL d   1      57.620  -0.405  31.100  0.00  0.00     0.135 A 
ATOM     11  C   UNL d   1      57.944   0.114  31.636  0.00  0.00     0.032 A 
ATOM     12  C   UNL d   1      57.613   0.155  32.404  0.00  0.00     0.003 A 
ATOM     13  C   UNL d   1      57.938   0.682  32.953  0.00  0.00     0.000 C 
ATOM     14  C   UNL d   1      56.996  -0.309  32.592  0.00  0.00     0.000 A 
ATOM     15  C   UNL d   1      56.675  -0.826  32.059  0.00  0.00     0.003 A 
ATOM     16  C   UNL d   1      56.991  -0.871  31.311  0.00  0.00     0.032 A 
ATOM     17  C   UNL d   1      56.036  -1.303  32.261  0.00  0.00     0.000 C 
ENDBRANCH   8  10
ENDBRANCH   1   7
BRANCH   1  18
ATOM     18  C   UNL d   1      59.690  -0.323  29.482  0.00  0.00     0.024 A 
ATOM     19  S   UNL d   1      59.832   0.345  29.009  0.00  0.00    -0.090 SA
ATOM     20  C   UNL d   1      60.567   0.663  29.207  0.00  0.00     0.035 A 
ATOM     21  C   UNL d   1      60.898   0.205  29.802  0.00  0.00     0.007 A 
ATOM     22  C   UNL d   1      60.356  -0.408  29.975  0.00  0.00     0.004 A 
ENDBRANCH   1  18
TORSDOF 3
ENDMDL
MODEL 3
REMARK VINA RESULT:      -1.8      1.517      3.723
REMARK  3 active torsions:
REMARK  status: ('A' for Active; 'I' for Inactive)
REMARK    1  A    between atoms: C_2  and  C_1 
REMARK    2  A    between atoms: C_3  and  C_1 
REMARK       I    between atoms: N_4  and  C_2 
REMARK    3  A    between atoms: C_6  and  N_4 
ROOT
ATOM      1  C   UNL d   1      57.312  -0.006  31.793  0.00  0.00     0.150 A 
ATOM      2  O   UNL d   1      58.589   0.572  32.669  0.00  0.00    -0.304 OA
ATOM      3  C   UNL d   1      57.929   0.392  31.411  0.00  0.00     0.019 A 
ATOM      4  C   UNL d   1      57.336  -0.112  32.601  0.00  0.00     0.019 A 
ATOM      5  C   UNL d   1      57.979   0.179  33.042  0.00  0.00     0.119 A 
ATOM      6  C   UNL d   1      58.567   0.681  31.852  0.00  0.00     0.119 A 
ENDROOT
BRANCH   1   7
ATOM      7  C   UNL d   1      57.288   0.102  30.972  0.00  0.00     0.315 C 
ATOM      8  N   UNL d   1      57.750  -0.366  30.475  0.00  0.00    -0.367 NA
ATOM      9  O   UNL d   1      56.798   0.682  30.656  0.00  0.00    -0.255 OA
BRANCH   8  10
ATOM     10  C   UNL d   1      58.209  -0.830  29.974  0.00  0.00     0.135 A 
ATOM     11  C   UNL d   1      58.759  -0.461  29.502  0.00  0.00     0.032 A 
ATOM     12  C   UNL d   1      59.228  -0.930  28.991  0.00  0.00     0.003 A 
ATOM     13  C   UNL d   1      59.789  -0.558  28.509  0.00  0.00     0.000 C 
ATOM     14  C   UNL d   1      59.126  -1.718  28.976  0.00  0.00     0.000 A 
ATOM     15  C   UNL d   1      58.578  -2.085  29.445  0.00  0.00     0.003 A 
ATOM     16  C   UNL d   1      58.120  -1.635  29.945  0.00  0.00     0.032 A 
ATOM     17  C   UNL d   1      58.479  -2.901  29.424  0.00  0.00     0.000 C 
ENDBRANCH   8  10
ENDBRANCH   1   7
BRANCH   1  18
ATOM     18  C   UNL d   1      56.693  -0.405  32.172  0.00  0.00     0.024 A 
ATOM     19  S   UNL d   1      56.027  -0.062  32.532  0.00  0.00    -0.090 SA
ATOM     20  C   UNL d   1      55.551  -0.661  32.841  0.00  0.00     0.035 A 
ATOM     21  C   UNL d   1      55.905  -1.384  32.683  0.00  0.00     0.007 A 
ATOM     22  C   UNL d   1      56.615  -1.228  32.267  0.00  0.00     0.004 A 
ENDBRANCH   1  18
TORSDOF 3
ENDMDL
MODEL 4
REMARK VINA RESULT:      -1.5      2.526      4.421
REMARK  3 active torsions:
REMARK  status: ('A' for Active; 'I' for Inactive)
REMARK    1  A    between atoms: C_2  and  C_1 
REMARK    2  A    between atoms: C_3  and  C_1 
REMARK       I    between atoms: N_4  and  C_2 
REMARK    3  A    between atoms: C_6  and  N_4 
ROOT
ATOM      1  C   UNL d   1      56.215  -0.236  32.898  0.00  0.00     0.150 A 
ATOM      2  O   UNL d   1      56.054  -1.877  32.780  0.00  0.00    -0.304 OA
ATOM      3  C   UNL d   1      56.142  -0.591  32.154  0.00  0.00     0.019 A 
ATOM      4  C   UNL d   1      56.208  -0.696  33.571  0.00  0.00     0.019 A 
ATOM      5  C   UNL d   1      56.127  -1.523  33.511  0.00  0.00     0.119 A 
ATOM      6  C   UNL d   1      56.061  -1.413  32.097  0.00  0.00     0.119 A 
ENDROOT
BRANCH   1   7
ATOM      7  C   UNL d   1      56.222   0.231  32.214  0.00  0.00     0.315 C 
ATOM      8  N   UNL d   1      56.918   0.331  31.783  0.00  0.00    -0.367 NA
ATOM      9  O   UNL d   1      55.528   0.597  31.968  0.00  0.00    -0.255 OA
BRANCH   8  10
ATOM     10  C   UNL d   1      57.608   0.435  31.348  0.00  0.00     0.135 A 
ATOM     11  C   UNL d   1      57.553   0.466  30.537  0.00  0.00     0.032 A 
ATOM     12  C   UNL d   1      58.253   0.572  30.092  0.00  0.00     0.003 A 
ATOM     13  C   UNL d   1      58.202   0.604  29.266  0.00  0.00     0.000 C 
ATOM     14  C   UNL d   1      58.952   0.638  30.465  0.00  0.00     0.000 A 
ATOM     15  C   UNL d   1      59.006   0.607  31.272  0.00  0.00     0.003 A 
ATOM     16  C   UNL d   1      58.329   0.505  31.712  0.00  0.00     0.032 A 
ATOM     17  C   UNL d   1      59.733   0.677  31.652  0.00  0.00     0.000 C 
ENDBRANCH   8  10
ENDBRANCH   1   7
BRANCH   1  18
ATOM     18  C   UNL d   1      56.289   0.123  33.641  0.00  0.00     0.024 A 
ATOM     19  S   UNL d   1      55.671   0.343  34.150  0.00  0.00    -0.090 SA
ATOM     20  C   UNL d   1      55.992   0.682  34.831  0.00  0.00     0.035 A 
ATOM     21  C   UNL d   1      56.810   0.682  34.762  0.00  0.00     0.007 A 
ATOM     22  C   UNL d   1      56.997   0.335  34.024  0.00  0.00     0.004 A 
ENDBRANCH   1  18
TORSDOF 3
ENDMDL
MODEL 5
REMARK VINA RESULT:      -1.2      1.278      3.692
REMARK  3 active torsions:
REMARK  status: ('A' for Active; 'I' for Inactive)
REMARK    1  A    between atoms: C_2  and  C_1 
REMARK    2  A    between atoms: C_3  and  C_1 
REMARK       I    between atoms: N_4  and  C_2 
REMARK    3  A    between atoms: C_6  and  N_4 
ROOT
ATOM      1  C   UNL d   1      58.409   0.199  29.762  0.00  0.00     0.150 A 
ATOM      2  O   UNL d   1      57.142   0.637  28.796  0.00  0.00    -0.304 OA
ATOM      3  C   UNL d   1      58.483   0.156  28.939  0.00  0.00     0.019 A 
ATOM      4  C   UNL d   1      57.711   0.458  30.095  0.00  0.00     0.019 A 
ATOM      5  C   UNL d   1      57.072   0.679  29.608  0.00  0.00     0.119 A 
ATOM      6  C   UNL d   1      57.847   0.376  28.457  0.00  0.00     0.119 A 
ENDROOT
BRANCH   1   7
ATOM      7  C   UNL d   1      59.118  -0.063  29.424  0.00  0.00     0.315 C 
ATOM      8  N   UNL d   1      59.281  -0.869  29.367  0.00  0.00    -0.367 NA
ATOM      9  O   UNL d   1      59.661   0.489  29.145  0.00  0.00    -0.255 OA
BRANCH   8  10
ATOM     10  C   UNL d   1      59.450  -1.672  29.307  0.00  0.00     0.135 A 
ATOM     11  C   UNL d   1      60.198  -1.925  29.502  0.00  0.00     0.032 A 
ATOM     12  C   UNL d   1      60.373  -2.741  29.442  0.00  0.00     0.003 A 
ATOM     13  C   UNL d   1      61.133  -3.003  29.639  0.00  0.00     0.000 C 
ATOM     14  C   UNL d   1      59.811  -3.248  29.199  0.00  0.00     0.000 A 
ATOM     15  C   UNL d   1      59.067  -2.995  29.005  0.00  0.00     0.003 A 
ATOM     16  C   UNL d   1      58.890  -2.204  29.061  0.00  0.00     0.032 A 
ATOM     17  C   UNL d   1      58.491  -3.526  28.755  0.00  0.00     0.000 C 
ENDBRANCH   8  10
ENDBRANCH   1   7
BRANCH   1  18
ATOM     18  C   UNL d   1      58.339   0.241  30.586  0.00  0.00     0.024 A 
ATOM     19  S   UNL d   1      57.675   0.034  31.040  0.00  0.00    -0.090 SA
ATOM     20  C   UNL d   1      57.843   0.162  31.837  0.00  0.00     0.035 A 
ATOM     21  C   UNL d   1      58.609   0.449  31.899  0.00  0.00     0.007 A 
ATOM     22  C   UNL d   1      58.920   0.499  31.124  0.00  0.00     0.004 A 
ENDBRANCH   1  18
TORSDOF 3
ENDMDL
MODEL 6
REMARK VINA RESULT:      -1.2      8.584      9.862
REMARK  3 active torsions:
REMARK  status: ('A' for Active; 'I' for Inactive)
REMARK    1  A    between atoms: C_2  and  C_1 
REMARK    2  A    between atoms: C_3  and  C_1 
REMARK       I    between atoms: N_4  and  C_2 
REMARK    3  A    between atoms: C_6  and  N_4 
ROOT
ATOM      1  C   UNL d   1      59.982  -8.034  35.661  0.00  0.00     0.150 A 
ATOM      2  O   UNL d   1      58.496  -8.315  36.326  0.00  0.00    -0.304 OA
ATOM      3  C   UNL d   1      59.665  -8.798  35.655  0.00  0.00     0.019 A 
ATOM      4  C   UNL d   1      59.560  -7.421  35.995  0.00  0.00     0.019 A 
ATOM      5  C   UNL d   1      58.812  -7.563  36.330  0.00  0.00     0.119 A 
ATOM      6  C   UNL d   1      58.920  -8.937  35.989  0.00  0.00     0.119 A 
ENDROOT
BRANCH   1   7
ATOM      7  C   UNL d   1      60.410  -8.656  35.322  0.00  0.00     0.315 C 
ATOM      8  N   UNL d   1      60.251  -8.903  34.552  0.00  0.00    -0.367 NA
ATOM      9  O   UNL d   1      60.999  -9.027  35.761  0.00  0.00    -0.255 OA
BRANCH   8  10
ATOM     10  C   UNL d   1      60.096  -9.155  33.784  0.00  0.00     0.135 A 
ATOM     11  C   UNL d   1      59.328  -9.336  33.585  0.00  0.00     0.032 A 
ATOM     12  C   UNL d   1      59.167  -9.592  32.804  0.00  0.00     0.003 A 
ATOM     13  C   UNL d   1      58.388  -9.778  32.596  0.00  0.00     0.000 C 
ATOM     14  C   UNL d   1      59.760  -9.653  32.279  0.00  0.00     0.000 A 
ATOM     15  C   UNL d   1      60.524  -9.472  32.478  0.00  0.00     0.003 A 
ATOM     16  C   UNL d   1      60.688  -9.223  33.235  0.00  0.00     0.032 A 
ATOM     17  C   UNL d   1      61.133  -9.538  31.929  0.00  0.00     0.000 C 
ENDBRANCH   8  10
ENDBRANCH   1   7
BRANCH   1  18
ATOM     18  C   UNL d   1      60.303  -7.270  35.665  0.00  0.00     0.024 A 
ATOM     19  S   UNL d   1      60.989  -7.021  36.062  0.00  0.00    -0.090 SA
ATOM     20  C   UNL d   1      61.107  -6.217  35.916  0.00  0.00     0.035 A 
ATOM     21  C   UNL d   1      60.503  -5.949  35.429  0.00  0.00     0.007 A 
ATOM     22  C   UNL d   1      60.002  -6.601  35.271  0.00  0.00     0.004 A 
ENDBRANCH   1  18
TORSDOF 3
ENDMDL
