MODEL 1
REMARK VINA RESULT:      17.6      0.000      0.000
REMARK  4 active torsions:
REMARK  status: ('A' for Active; 'I' for Inactive)
REMARK    1  A    between atoms: C_2  and  C_1 
REMARK    2  A    between atoms: C_8  and  C_1 
REMARK    3  A    between atoms: C_9  and  C_2 
REMARK    4  A    between atoms: N_4  and  C_3 
ROOT
ATOM      1  C   UNL d   1      13.161  12.596  -4.878  0.00  0.00     0.064 A 
ATOM      2  C   UNL d   1      13.486  13.176  -4.392  0.00  0.00     0.018 A 
ATOM      3  C   UNL d   1      12.841  11.897  -4.557  0.00  0.00     0.018 A 
ATOM      4  C   UNL d   1      13.179  12.373  -3.246  0.00  0.00     0.000 A 
ATOM      5  C   UNL d   1      13.492  13.060  -3.581  0.00  0.00     0.002 A 
ATOM      6  C   UNL d   1      12.851  11.788  -3.746  0.00  0.00     0.002 A 
ENDROOT
BRANCH   4   7
ATOM      7  C   UNL d   1      13.186  12.257  -2.432  0.00  0.00     0.000 C 
BRANCH   7   8
ATOM      8  C   UNL d   1      13.763  11.780  -2.094  0.00  0.00     0.000 C 
BRANCH   8   9
ATOM      9  C   UNL d   1      14.160  12.037  -1.415  0.00  0.00     0.003 A 
ATOM     10  C   UNL d   1      14.934  12.296  -1.508  0.00  0.00     0.021 A 
ATOM     11  C   UNL d   1      15.363  12.562  -0.841  0.00  0.00     0.099 A 
ATOM     12  N   UNL d   1      15.004  12.562  -0.091  0.00  0.00    -0.242 NA
ATOM     13  C   UNL d   1      14.225  12.298  -0.015  0.00  0.00     0.099 A 
ATOM     14  C   UNL d   1      13.800  12.036  -0.670  0.00  0.00     0.021 A 
ENDBRANCH   8   9
ENDBRANCH   7   8
ENDBRANCH   4   7
BRANCH   1  15
ATOM     15  N   UNL d   1      13.149  12.703  -5.707  0.00  0.00    -0.301 N 
ATOM     16  C   UNL d   1      13.009  12.052  -6.199  0.00  0.00     0.100 C 
ATOM     17  C   UNL d   1      13.276  13.454  -6.028  0.00  0.00     0.100 C 
ENDBRANCH   1  15
TORSDOF 4
ENDMDL
MODEL 2
REMARK VINA RESULT:      17.7      0.640      4.198
REMARK  4 active torsions:
REMARK  status: ('A' for Active; 'I' for Inactive)
REMARK    1  A    between atoms: C_2  and  C_1 
REMARK    2  A    between atoms: C_8  and  C_1 
REMARK    3  A    between atoms: C_9  and  C_2 
REMARK    4  A    between atoms: N_4  and  C_3 
ROOT
ATOM      1  C   UNL d   1      14.811  12.389  -0.920  0.00  0.00     0.064 A 
ATOM      2  C   UNL d   1      15.000  12.524  -1.710  0.00  0.00     0.018 A 
ATOM      3  C   UNL d   1      14.073  12.069  -0.703  0.00  0.00     0.018 A 
ATOM      4  C   UNL d   1      13.714  12.020  -2.092  0.00  0.00     0.000 A 
ATOM      5  C   UNL d   1      14.450  12.338  -2.289  0.00  0.00     0.002 A 
ATOM      6  C   UNL d   1      13.529  11.886  -1.287  0.00  0.00     0.002 A 
ENDROOT
BRANCH   4   7
ATOM      7  C   UNL d   1      13.162  11.834  -2.673  0.00  0.00     0.000 C 
BRANCH   7   8
ATOM      8  C   UNL d   1      12.811  12.436  -3.108  0.00  0.00     0.000 C 
BRANCH   8   9
ATOM      9  C   UNL d   1      12.998  12.525  -3.909  0.00  0.00     0.003 A 
ATOM     10  C   UNL d   1      13.006  13.289  -4.210  0.00  0.00     0.021 A 
ATOM     11  C   UNL d   1      13.192  13.412  -5.017  0.00  0.00     0.099 A 
ATOM     12  N   UNL d   1      13.366  12.763  -5.506  0.00  0.00    -0.242 NA
ATOM     13  C   UNL d   1      13.354  12.001  -5.187  0.00  0.00     0.099 A 
ATOM     14  C   UNL d   1      13.171  11.876  -4.393  0.00  0.00     0.021 A 
ENDBRANCH   8   9
ENDBRANCH   7   8
ENDBRANCH   4   7
BRANCH   1  15
ATOM     15  N   UNL d   1      15.364  12.575  -0.321  0.00  0.00    -0.301 N 
ATOM     16  C   UNL d   1      15.389  13.344  -0.014  0.00  0.00     0.100 C 
ATOM     17  C   UNL d   1      15.878  11.992  -0.040  0.00  0.00     0.100 C 
ENDBRANCH   1  15
TORSDOF 4
ENDMDL
