MODEL 1
REMARK VINA RESULT:       3.0      0.000      0.000
REMARK  6 active torsions:
REMARK  status: ('A' for Active; 'I' for Inactive)
REMARK    1  A    between atoms: C_8  and  N_1 
REMARK    2  A    between atoms: C_6  and  C_3 
REMARK    3  A    between atoms: C_7  and  C_6 
REMARK       I    between atoms: N_11  and  C_7 
REMARK    4  A    between atoms: C_9  and  C_8 
REMARK       I    between atoms: N_12  and  C_9 
REMARK    5  A    between atoms: C_17  and  N_11 
REMARK    6  A    between atoms: C_16  and  N_12 
ROOT
ATOM      1  N   UNL d   1      59.711  -9.503  30.655  0.00  0.00    -0.230 N 
ATOM      2  C   UNL d   1      60.492  -9.389  30.903  0.00  0.00     0.299 A 
ATOM      3  C   UNL d   1      59.750  -9.648  31.977  0.00  0.00     0.095 A 
ATOM      4  C   UNL d   1      59.251  -9.663  31.320  0.00  0.00     0.274 A 
ATOM      5  S   UNL d   1      60.506  -9.481  31.721  0.00  0.00    -0.022 SA
ATOM      6  O   UNL d   1      61.133  -9.216  30.414  0.00  0.00    -0.259 OA
ATOM      7  O   UNL d   1      58.437  -9.812  31.325  0.00  0.00    -0.266 OA
ENDROOT
BRANCH   1   8
ATOM      8  C   UNL d   1      59.440  -9.462  29.874  0.00  0.00     0.149 C 
BRANCH   8   9
ATOM      9  C   UNL d   1      58.729  -9.078  29.706  0.00  0.00     0.297 C 
ATOM     10  N   UNL d   1      58.222  -9.389  29.144  0.00  0.00    -0.207 NA
ATOM     11  O   UNL d   1      58.532  -8.380  30.106  0.00  0.00    -0.264 OA
BRANCH  10  12
ATOM     12  C   UNL d   1      57.507  -9.005  28.973  0.00  0.00     0.085 A 
ATOM     13  C   UNL d   1      56.796  -9.399  29.090  0.00  0.00     0.019 A 
ATOM     14  C   UNL d   1      56.085  -9.018  28.921  0.00  0.00     0.002 A 
ATOM     15  C   UNL d   1      56.091  -8.242  28.636  0.00  0.00     0.000 A 
ATOM     16  C   UNL d   1      56.814  -7.849  28.520  0.00  0.00     0.002 A 
ATOM     17  C   UNL d   1      55.385  -7.858  28.466  0.00  0.00     0.000 C 
ATOM     18  C   UNL d   1      57.520  -8.233  28.690  0.00  0.00     0.019 A 
ENDBRANCH  10  12
ENDBRANCH   8   9
ENDBRANCH   1   8
BRANCH   3  19
ATOM     19  C   UNL d   1      59.513  -9.782  32.757  0.00  0.00     0.074 C 
BRANCH  19  20
ATOM     20  C   UNL d   1      59.534  -9.167  33.302  0.00  0.00     0.280 C 
ATOM     21  N   UNL d   1      59.541  -9.321  34.106  0.00  0.00    -0.208 NA
ATOM     22  O   UNL d   1      59.550  -8.381  33.040  0.00  0.00    -0.265 OA
BRANCH  21  23
ATOM     23  C   UNL d   1      59.562  -8.704  34.647  0.00  0.00     0.085 A 
ATOM     24  C   UNL d   1      58.862  -8.403  34.953  0.00  0.00     0.020 A 
ATOM     25  C   UNL d   1      58.886  -7.783  35.497  0.00  0.00     0.013 A 
ATOM     26  C   UNL d   1      59.603  -7.468  35.732  0.00  0.00     0.058 A 
ATOM     27  C   UNL d   1      60.313  -7.770  35.424  0.00  0.00     0.013 A 
ATOM     28 CL   UNL d   1      59.628  -6.847  36.276  0.00  0.00    -0.082 Cl
ATOM     29  C   UNL d   1      60.289  -8.391  34.880  0.00  0.00     0.020 A 
ENDBRANCH  21  23
ENDBRANCH  19  20
ENDBRANCH   3  19
TORSDOF 6
ENDMDL
MODEL 2
REMARK VINA RESULT:       5.0      8.056      8.793
REMARK  6 active torsions:
REMARK  status: ('A' for Active; 'I' for Inactive)
REMARK    1  A    between atoms: C_8  and  N_1 
REMARK    2  A    between atoms: C_6  and  C_3 
REMARK    3  A    between atoms: C_7  and  C_6 
REMARK       I    between atoms: N_11  and  C_7 
REMARK    4  A    between atoms: C_9  and  C_8 
REMARK       I    between atoms: N_12  and  C_9 
REMARK    5  A    between atoms: C_17  and  N_11 
REMARK    6  A    between atoms: C_16  and  N_12 
ROOT
ATOM      1  N   UNL d   1      59.233   0.081  29.560  0.00  0.00    -0.230 N 
ATOM      2  C   UNL d   1      59.560   0.371  30.263  0.00  0.00     0.299 A 
ATOM      3  C   UNL d   1      58.238   0.504  30.335  0.00  0.00     0.095 A 
ATOM      4  C   UNL d   1      58.414   0.163  29.604  0.00  0.00     0.274 A 
ATOM      5  S   UNL d   1      58.937   0.630  30.735  0.00  0.00    -0.022 SA
ATOM      6  O   UNL d   1      60.363   0.393  30.447  0.00  0.00    -0.259 OA
ATOM      7  O   UNL d   1      57.871  -0.057  29.021  0.00  0.00    -0.266 OA
ENDROOT
BRANCH   1   8
ATOM      8  C   UNL d   1      59.657  -0.236  28.924  0.00  0.00     0.149 C 
BRANCH   8   9
ATOM      9  C   UNL d   1      59.681  -1.053  28.813  0.00  0.00     0.297 C 
ATOM     10  N   UNL d   1      60.373  -1.465  28.963  0.00  0.00    -0.207 NA
ATOM     11  O   UNL d   1      59.005  -1.455  28.551  0.00  0.00    -0.264 OA
BRANCH  10  12
ATOM     12  C   UNL d   1      60.398  -2.286  28.852  0.00  0.00     0.085 A 
ATOM     13  C   UNL d   1      61.106  -2.689  28.962  0.00  0.00     0.019 A 
ATOM     14  C   UNL d   1      61.133  -3.505  28.852  0.00  0.00     0.002 A 
ATOM     15  C   UNL d   1      60.449  -3.914  28.632  0.00  0.00     0.000 A 
ATOM     16  C   UNL d   1      59.736  -3.500  28.523  0.00  0.00     0.002 A 
ATOM     17  C   UNL d   1      60.471  -4.728  28.522  0.00  0.00     0.000 C 
ATOM     18  C   UNL d   1      59.714  -2.686  28.634  0.00  0.00     0.019 A 
ENDBRANCH  10  12
ENDBRANCH   8   9
ENDBRANCH   1   8
BRANCH   3  19
ATOM     19  C   UNL d   1      57.478   0.682  30.604  0.00  0.00     0.074 C 
BRANCH  19  20
ATOM     20  C   UNL d   1      57.252   0.464  31.364  0.00  0.00     0.280 C 
ATOM     21  N   UNL d   1      56.462   0.357  31.549  0.00  0.00    -0.208 NA
ATOM     22  O   UNL d   1      57.825   0.351  31.951  0.00  0.00    -0.265 OA
BRANCH  21  23
ATOM     23  C   UNL d   1      56.239   0.140  32.309  0.00  0.00     0.085 A 
ATOM     24  C   UNL d   1      56.344   0.664  32.933  0.00  0.00     0.020 A 
ATOM     25  C   UNL d   1      56.120   0.444  33.696  0.00  0.00     0.013 A 
ATOM     26  C   UNL d   1      55.794  -0.295  33.833  0.00  0.00     0.058 A 
ATOM     27  C   UNL d   1      55.687  -0.827  33.204  0.00  0.00     0.013 A 
ATOM     28 CL   UNL d   1      55.570  -0.516  34.596  0.00  0.00    -0.082 Cl
ATOM     29  C   UNL d   1      55.912  -0.606  32.441  0.00  0.00     0.020 A 
ENDBRANCH  21  23
ENDBRANCH  19  20
ENDBRANCH   3  19
TORSDOF 6
ENDMDL
