MODEL 1
REMARK VINA RESULT:      13.6      0.000      0.000
REMARK  1 active torsions:
REMARK  status: ('A' for Active; 'I' for Inactive)
REMARK    1  A    between atoms: C_6  and  C_1 
ROOT
ATOM      1  C   UNL d   1      58.724  49.698  50.496  0.00  0.00     0.162 A 
ATOM      2  N   UNL d   1      58.033  49.700  50.952  0.00  0.00    -0.225 NA
ATOM      3  N   UNL d   1      58.518  49.696  49.710  0.00  0.00    -0.225 NA
ATOM      4  C   UNL d   1      57.382  49.700  50.442  0.00  0.00     0.101 A 
ATOM      5  C   UNL d   1      57.685  49.698  49.681  0.00  0.00     0.101 A 
ATOM      6  C   UNL d   1      56.569  49.702  50.572  0.00  0.00     0.021 A 
ATOM      7  C   UNL d   1      57.170  49.697  49.029  0.00  0.00     0.021 A 
ATOM      8  C   UNL d   1      56.035  49.702  49.933  0.00  0.00     0.002 A 
ATOM      9  C   UNL d   1      56.324  49.699  49.152  0.00  0.00     0.002 A 
ENDROOT
BRANCH   1  10
ATOM     10  C   UNL d   1      59.449  49.697  50.822  0.00  0.00     0.036 A 
ATOM     11  C   UNL d   1      59.531  49.706  51.647  0.00  0.00     0.005 A 
ATOM     12  C   UNL d   1      60.278  49.706  51.994  0.00  0.00     0.030 A 
ATOM     13  C   UNL d   1      60.952  49.696  51.521  0.00  0.00     0.140 A 
ATOM     14  C   UNL d   1      60.876  49.686  50.698  0.00  0.00     0.030 A 
ATOM     15  F   UNL d   1      61.707  49.695  51.886  0.00  0.00    -0.204 F 
ATOM     16  C   UNL d   1      60.139  49.686  50.346  0.00  0.00     0.005 A 
ENDBRANCH   1  10
TORSDOF 1
ENDMDL
