MODEL 1
REMARK VINA RESULT:      -3.4      0.000      0.000
REMARK  4 active torsions:
REMARK  status: ('A' for Active; 'I' for Inactive)
REMARK    1  A    between atoms: C_6  and  C_4 
REMARK    2  A    between atoms: C_9  and  C_6 
REMARK    3  A    between atoms: O_15  and  C_8 
REMARK    4  A    between atoms: O_16  and  C_12 
ROOT
ATOM      1  C   UNL d   1      58.779   0.585  30.686  0.00  0.00     0.116 A 
ATOM      2  C   UNL d   1      57.550   0.585  31.412  0.00  0.00     0.003 A 
ATOM      3  C   UNL d   1      58.369   0.680  31.388  0.00  0.00     0.026 A 
ATOM      4  C   UNL d   1      58.374   0.390  29.987  0.00  0.00     0.116 A 
ATOM      5  C   UNL d   1      57.549   0.295  30.013  0.00  0.00     0.026 A 
ATOM      6  C   UNL d   1      57.138   0.391  30.716  0.00  0.00     0.002 A 
ENDROOT
BRANCH   2   7
ATOM      7  C   UNL d   1      57.138   0.682  32.119  0.00  0.00     0.009 C 
BRANCH   7   8
ATOM      8  C   UNL d   1      56.768   0.040  32.468  0.00  0.00     0.062 A 
ATOM      9  C   UNL d   1      56.508  -0.002  33.254  0.00  0.00     0.145 A 
ATOM     10  N   UNL d   1      56.167  -0.744  33.372  0.00  0.00    -0.191 NA
ATOM     11  S   UNL d   1      56.580   0.596  33.814  0.00  0.00    -0.057 SA
ATOM     12  C   UNL d   1      56.215  -1.163  32.659  0.00  0.00     0.311 A 
ATOM     13  S   UNL d   1      56.584  -0.679  32.108  0.00  0.00    -0.023 SA
ATOM     14  O   UNL d   1      55.939  -1.931  32.534  0.00  0.00    -0.258 OA
ENDBRANCH   7   8
ENDBRANCH   2   7
BRANCH   1  15
ATOM     15  O   UNL d   1      59.600   0.682  30.671  0.00  0.00    -0.326 OA
ATOM     16  C   UNL d   1      60.040   0.583  31.370  0.00  0.00     0.181 C 
ENDBRANCH   1  15
BRANCH   4  17
ATOM     17  O   UNL d   1      58.775   0.293  29.282  0.00  0.00    -0.326 OA
ATOM     18  C   UNL d   1      58.421   0.501  28.566  0.00  0.00     0.181 C 
ENDBRANCH   4  17
TORSDOF 4
ENDMDL
MODEL 2
REMARK VINA RESULT:      -2.9      1.333      1.827
REMARK  4 active torsions:
REMARK  status: ('A' for Active; 'I' for Inactive)
REMARK    1  A    between atoms: C_6  and  C_4 
REMARK    2  A    between atoms: C_9  and  C_6 
REMARK    3  A    between atoms: O_15  and  C_8 
REMARK    4  A    between atoms: O_16  and  C_12 
ROOT
ATOM      1  C   UNL d   1      58.531  -0.640  30.052  0.00  0.00     0.116 A 
ATOM      2  C   UNL d   1      57.621   0.015  30.935  0.00  0.00     0.003 A 
ATOM      3  C   UNL d   1      57.834  -0.640  30.482  0.00  0.00     0.026 A 
ATOM      4  C   UNL d   1      59.033   0.023  30.068  0.00  0.00     0.116 A 
ATOM      5  C   UNL d   1      58.815   0.681  30.525  0.00  0.00     0.026 A 
ATOM      6  C   UNL d   1      58.119   0.681  30.955  0.00  0.00     0.002 A 
ENDROOT
BRANCH   2   7
ATOM      7  C   UNL d   1      56.919   0.014  31.368  0.00  0.00     0.009 C 
BRANCH   7   8
ATOM      8  C   UNL d   1      56.942  -0.000  32.186  0.00  0.00     0.062 A 
ATOM      9  C   UNL d   1      56.560  -0.552  32.674  0.00  0.00     0.145 A 
ATOM     10  N   UNL d   1      56.731  -0.362  33.458  0.00  0.00    -0.191 NA
ATOM     11  S   UNL d   1      56.094  -1.177  32.413  0.00  0.00    -0.057 SA
ATOM     12  C   UNL d   1      57.219   0.307  33.459  0.00  0.00     0.311 A 
ATOM     13  S   UNL d   1      57.346   0.525  32.677  0.00  0.00    -0.023 SA
ATOM     14  O   UNL d   1      57.520   0.681  34.131  0.00  0.00    -0.258 OA
ENDBRANCH   7   8
ENDBRANCH   2   7
BRANCH   1  15
ATOM     15  O   UNL d   1      58.736  -1.301  29.601  0.00  0.00    -0.326 OA
ATOM     16  C   UNL d   1      58.216  -1.948  29.555  0.00  0.00     0.181 C 
ENDBRANCH   1  15
BRANCH   4  17
ATOM     17  O   UNL d   1      59.730   0.030  29.641  0.00  0.00    -0.326 OA
ATOM     18  C   UNL d   1      60.345   0.537  29.856  0.00  0.00     0.181 C 
ENDBRANCH   4  17
TORSDOF 4
ENDMDL
MODEL 3
REMARK VINA RESULT:      -2.9      1.991      3.455
REMARK  4 active torsions:
REMARK  status: ('A' for Active; 'I' for Inactive)
REMARK    1  A    between atoms: C_6  and  C_4 
REMARK    2  A    between atoms: C_9  and  C_6 
REMARK    3  A    between atoms: O_15  and  C_8 
REMARK    4  A    between atoms: O_16  and  C_12 
ROOT
ATOM      1  C   UNL d   1      57.084   0.421  33.071  0.00  0.00     0.116 A 
ATOM      2  C   UNL d   1      57.196   0.343  31.651  0.00  0.00     0.003 A 
ATOM      3  C   UNL d   1      57.493   0.583  32.381  0.00  0.00     0.026 A 
ATOM      4  C   UNL d   1      56.360   0.012  33.043  0.00  0.00     0.116 A 
ATOM      5  C   UNL d   1      56.062  -0.228  32.306  0.00  0.00     0.026 A 
ATOM      6  C   UNL d   1      56.472  -0.067  31.616  0.00  0.00     0.002 A 
ENDROOT
BRANCH   2   7
ATOM      7  C   UNL d   1      57.609   0.506  30.957  0.00  0.00     0.009 C 
BRANCH   7   8
ATOM      8  C   UNL d   1      57.951  -0.104  30.531  0.00  0.00     0.062 A 
ATOM      9  C   UNL d   1      58.559  -0.026  29.972  0.00  0.00     0.145 A 
ATOM     10  N   UNL d   1      58.735  -0.776  29.678  0.00  0.00    -0.191 NA
ATOM     11  S   UNL d   1      58.918   0.681  29.753  0.00  0.00    -0.057 SA
ATOM     12  C   UNL d   1      58.238  -1.321  30.054  0.00  0.00     0.311 A 
ATOM     13  S   UNL d   1      57.759  -0.905  30.575  0.00  0.00    -0.023 SA
ATOM     14  O   UNL d   1      58.231  -2.136  29.921  0.00  0.00    -0.258 OA
ENDBRANCH   7   8
ENDBRANCH   2   7
BRANCH   1  15
ATOM     15  O   UNL d   1      57.389   0.665  33.800  0.00  0.00    -0.326 OA
ATOM     16  C   UNL d   1      58.212   0.678  33.918  0.00  0.00     0.181 C 
ENDBRANCH   1  15
BRANCH   4  17
ATOM     17  O   UNL d   1      55.945  -0.153  33.727  0.00  0.00    -0.326 OA
ATOM     18  C   UNL d   1      55.154   0.074  33.802  0.00  0.00     0.181 C 
ENDBRANCH   4  17
TORSDOF 4
ENDMDL
MODEL 4
REMARK VINA RESULT:      -2.5      2.075      3.778
REMARK  4 active torsions:
REMARK  status: ('A' for Active; 'I' for Inactive)
REMARK    1  A    between atoms: C_6  and  C_4 
REMARK    2  A    between atoms: C_9  and  C_6 
REMARK    3  A    between atoms: O_15  and  C_8 
REMARK    4  A    between atoms: O_16  and  C_12 
ROOT
ATOM      1  C   UNL d   1      57.006  -0.443  32.325  0.00  0.00     0.116 A 
ATOM      2  C   UNL d   1      57.464   0.089  31.082  0.00  0.00     0.003 A 
ATOM      3  C   UNL d   1      57.019  -0.460  31.506  0.00  0.00     0.026 A 
ATOM      4  C   UNL d   1      57.443   0.130  32.739  0.00  0.00     0.116 A 
ATOM      5  C   UNL d   1      57.891   0.682  32.309  0.00  0.00     0.026 A 
ATOM      6  C   UNL d   1      57.904   0.665  31.491  0.00  0.00     0.002 A 
ENDROOT
BRANCH   2   7
ATOM      7  C   UNL d   1      57.476   0.071  30.259  0.00  0.00     0.009 C 
BRANCH   7   8
ATOM      8  C   UNL d   1      58.147  -0.185  29.864  0.00  0.00     0.062 A 
ATOM      9  C   UNL d   1      58.411   0.087  29.127  0.00  0.00     0.145 A 
ATOM     10  N   UNL d   1      59.104  -0.318  28.937  0.00  0.00    -0.191 NA
ATOM     11  S   UNL d   1      58.040   0.661  28.669  0.00  0.00    -0.057 SA
ATOM     12  C   UNL d   1      59.272  -0.841  29.557  0.00  0.00     0.311 A 
ATOM     13  S   UNL d   1      58.682  -0.756  30.122  0.00  0.00    -0.023 SA
ATOM     14  O   UNL d   1      59.919  -1.353  29.591  0.00  0.00    -0.258 OA
ENDBRANCH   7   8
ENDBRANCH   2   7
BRANCH   1  15
ATOM     15  O   UNL d   1      56.556  -0.998  32.742  0.00  0.00    -0.326 OA
ATOM     16  C   UNL d   1      55.752  -1.099  32.558  0.00  0.00     0.181 C 
ENDBRANCH   1  15
BRANCH   4  17
ATOM     17  O   UNL d   1      57.435   0.154  33.556  0.00  0.00    -0.326 OA
ATOM     18  C   UNL d   1      57.923   0.681  33.963  0.00  0.00     0.181 C 
ENDBRANCH   4  17
TORSDOF 4
ENDMDL
MODEL 5
REMARK VINA RESULT:      -1.7      8.716      9.851
REMARK  4 active torsions:
REMARK  status: ('A' for Active; 'I' for Inactive)
REMARK    1  A    between atoms: C_6  and  C_4 
REMARK    2  A    between atoms: C_9  and  C_6 
REMARK    3  A    between atoms: O_15  and  C_8 
REMARK    4  A    between atoms: O_16  and  C_12 
ROOT
ATOM      1  C   UNL d   1      59.760  -7.334  35.813  0.00  0.00     0.116 A 
ATOM      2  C   UNL d   1      60.016  -8.573  35.153  0.00  0.00     0.003 A 
ATOM      3  C   UNL d   1      59.488  -8.001  35.423  0.00  0.00     0.026 A 
ATOM      4  C   UNL d   1      60.575  -7.226  35.941  0.00  0.00     0.116 A 
ATOM      5  C   UNL d   1      61.104  -7.805  35.668  0.00  0.00     0.026 A 
ATOM      6  C   UNL d   1      60.832  -8.472  35.278  0.00  0.00     0.002 A 
ENDROOT
BRANCH   2   7
ATOM      7  C   UNL d   1      59.742  -9.244  34.761  0.00  0.00     0.009 C 
BRANCH   7   8
ATOM      8  C   UNL d   1      59.903  -9.348  33.965  0.00  0.00     0.062 A 
ATOM      9  C   UNL d   1      59.366  -9.613  33.391  0.00  0.00     0.145 A 
ATOM     10  N   UNL d   1      59.758  -9.636  32.665  0.00  0.00    -0.191 NA
ATOM     11  S   UNL d   1      58.581  -9.814  33.528  0.00  0.00    -0.057 SA
ATOM     12  C   UNL d   1      60.538  -9.387  32.788  0.00  0.00     0.311 A 
ATOM     13  S   UNL d   1      60.622  -9.211  33.585  0.00  0.00    -0.023 SA
ATOM     14  O   UNL d   1      61.120  -9.328  32.205  0.00  0.00    -0.258 OA
ENDBRANCH   7   8
ENDBRANCH   2   7
BRANCH   1  15
ATOM     15  O   UNL d   1      59.224  -6.765  36.081  0.00  0.00    -0.326 OA
ATOM     16  C   UNL d   1      58.515  -6.638  35.665  0.00  0.00     0.181 C 
ENDBRANCH   1  15
BRANCH   4  17
ATOM     17  O   UNL d   1      60.854  -6.564  36.329  0.00  0.00    -0.326 OA
ATOM     18  C   UNL d   1      61.124  -5.912  35.901  0.00  0.00     0.181 C 
ENDBRANCH   4  17
TORSDOF 4
ENDMDL
