MODEL 1
REMARK VINA RESULT:      -7.6      0.000      0.000
REMARK  5 active torsions:
REMARK  status: ('A' for Active; 'I' for Inactive)
REMARK    1  A    between atoms: C_9  and  C_1 
REMARK    2  A    between atoms: S_2  and  N_8 
REMARK    3  A    between atoms: C_10  and  S_2 
REMARK    4  A    between atoms: C_14  and  C_3 
REMARK    5  A    between atoms: N_8  and  C_9 
ROOT
ATOM      1  C   UNL d   1      52.419  33.390  53.236  0.00  0.00     0.078 A 
ATOM      2  C   UNL d   1      53.015  33.749  53.693  0.00  0.00     0.008 A 
ATOM      3  C   UNL d   1      52.526  32.631  52.942  0.00  0.00     0.281 A 
ATOM      4  C   UNL d   1      53.709  33.336  53.845  0.00  0.00     0.019 A 
ATOM      5  N   UNL d   1      53.232  32.217  53.099  0.00  0.00    -0.208 NA
ATOM      6  C   UNL d   1      53.816  32.577  53.551  0.00  0.00     0.085 A 
ATOM      7  C   UNL d   1      54.297  33.696  54.299  0.00  0.00     0.013 A 
ATOM      8  O   UNL d   1      51.920  32.272  52.480  0.00  0.00    -0.265 OA
ATOM      9  C   UNL d   1      54.513  32.163  53.704  0.00  0.00     0.020 A 
ATOM     10  C   UNL d   1      55.003  33.282  54.456  0.00  0.00     0.058 A 
ATOM     11  C   UNL d   1      55.110  32.523  54.162  0.00  0.00     0.013 A 
ATOM     12 CL   UNL d   1      55.608  33.641  54.918  0.00  0.00    -0.082 Cl
ENDROOT
BRANCH   1  13
ATOM     13  C   UNL d   1      51.713  33.804  53.079  0.00  0.00     0.117 C 
BRANCH  13  14
ATOM     14  N   UNL d   1      51.138  33.462  52.589  0.00  0.00    -0.157 NA
BRANCH  14  15
ATOM     15  S   UNL d   1      50.490  33.990  52.576  0.00  0.00     0.285 S 
ATOM     16  O   UNL d   1      50.199  33.651  53.275  0.00  0.00    -0.198 OA
ATOM     17  O   UNL d   1      50.790  34.326  51.874  0.00  0.00    -0.198 OA
BRANCH  15  18
ATOM     18  C   UNL d   1      49.848  34.515  52.563  0.00  0.00     0.105 A 
ATOM     19  C   UNL d   1      49.589  34.877  53.261  0.00  0.00     0.013 A 
ATOM     20  C   UNL d   1      48.955  35.396  53.258  0.00  0.00     0.001 A 
ATOM     21  C   UNL d   1      48.562  35.564  52.537  0.00  0.00     0.000 A 
ATOM     22  C   UNL d   1      48.821  35.202  51.839  0.00  0.00     0.001 A 
ATOM     23  C   UNL d   1      47.926  36.084  52.524  0.00  0.00     0.000 C 
ATOM     24  C   UNL d   1      49.464  34.678  51.852  0.00  0.00     0.013 A 
ENDBRANCH  15  18
ENDBRANCH  14  15
ENDBRANCH  13  14
ENDBRANCH   1  13
BRANCH   2  25
ATOM     25  C   UNL d   1      52.908  34.509  53.988  0.00  0.00     0.000 A 
ATOM     26  C   UNL d   1      53.117  35.165  53.541  0.00  0.00     0.000 A 
ATOM     27  C   UNL d   1      53.009  35.924  53.835  0.00  0.00     0.000 A 
ATOM     28  C   UNL d   1      52.692  36.042  54.583  0.00  0.00     0.000 A 
ATOM     29  C   UNL d   1      52.475  35.379  55.047  0.00  0.00     0.000 A 
ATOM     30  C   UNL d   1      52.584  34.621  54.748  0.00  0.00     0.000 A 
ENDBRANCH   2  25
TORSDOF 5
ENDMDL
MODEL 2
REMARK VINA RESULT:      -7.4      2.143      4.621
REMARK  5 active torsions:
REMARK  status: ('A' for Active; 'I' for Inactive)
REMARK    1  A    between atoms: C_9  and  C_1 
REMARK    2  A    between atoms: S_2  and  N_8 
REMARK    3  A    between atoms: C_10  and  S_2 
REMARK    4  A    between atoms: C_14  and  C_3 
REMARK    5  A    between atoms: N_8  and  C_9 
ROOT
ATOM      1  C   UNL d   1      52.798  32.707  53.274  0.00  0.00     0.078 A 
ATOM      2  C   UNL d   1      53.082  33.345  53.727  0.00  0.00     0.008 A 
ATOM      3  C   UNL d   1      52.173  32.818  52.753  0.00  0.00     0.281 A 
ATOM      4  C   UNL d   1      52.732  34.083  53.646  0.00  0.00     0.019 A 
ATOM      5  N   UNL d   1      51.822  33.569  52.674  0.00  0.00    -0.208 NA
ATOM      6  C   UNL d   1      52.108  34.194  53.124  0.00  0.00     0.085 A 
ATOM      7  C   UNL d   1      53.017  34.713  54.096  0.00  0.00     0.013 A 
ATOM      8  O   UNL d   1      51.888  32.170  52.296  0.00  0.00    -0.265 OA
ATOM      9  C   UNL d   1      51.756  34.937  53.043  0.00  0.00     0.020 A 
ATOM     10  C   UNL d   1      52.666  35.464  54.019  0.00  0.00     0.058 A 
ATOM     11  C   UNL d   1      52.042  35.575  53.497  0.00  0.00     0.013 A 
ATOM     12 CL   UNL d   1      52.950  36.112  54.474  0.00  0.00    -0.082 Cl
ENDROOT
BRANCH   1  13
ATOM     13  C   UNL d   1      53.149  31.955  53.352  0.00  0.00     0.117 C 
BRANCH  13  14
ATOM     14  N   UNL d   1      52.860  31.320  52.905  0.00  0.00    -0.157 NA
BRANCH  14  15
ATOM     15  S   UNL d   1      53.053  30.624  53.327  0.00  0.00     0.285 S 
ATOM     16  O   UNL d   1      52.304  30.632  53.684  0.00  0.00    -0.198 OA
ATOM     17  O   UNL d   1      53.803  30.624  52.963  0.00  0.00    -0.198 OA
BRANCH  15  18
ATOM     18  C   UNL d   1      53.245  29.933  53.745  0.00  0.00     0.105 A 
ATOM     19  C   UNL d   1      52.706  29.605  54.280  0.00  0.00     0.013 A 
ATOM     20  C   UNL d   1      52.887  28.923  54.697  0.00  0.00     0.001 A 
ATOM     21  C   UNL d   1      53.629  28.553  54.581  0.00  0.00     0.000 A 
ATOM     22  C   UNL d   1      54.169  28.881  54.047  0.00  0.00     0.001 A 
ATOM     23  C   UNL d   1      53.820  27.869  54.995  0.00  0.00     0.000 C 
ATOM     24  C   UNL d   1      53.977  29.572  53.628  0.00  0.00     0.013 A 
ENDBRANCH  15  18
ENDBRANCH  14  15
ENDBRANCH  13  14
ENDBRANCH   1  13
BRANCH   2  25
ATOM     25  C   UNL d   1      53.707  33.234  54.250  0.00  0.00     0.000 A 
ATOM     26  C   UNL d   1      53.567  33.044  55.035  0.00  0.00     0.000 A 
ATOM     27  C   UNL d   1      54.192  32.933  55.558  0.00  0.00     0.000 A 
ATOM     28  C   UNL d   1      54.968  33.010  55.303  0.00  0.00     0.000 A 
ATOM     29  C   UNL d   1      55.122  33.203  54.502  0.00  0.00     0.000 A 
ATOM     30  C   UNL d   1      54.493  33.313  53.984  0.00  0.00     0.000 A 
ENDBRANCH   2  25
TORSDOF 5
ENDMDL
MODEL 3
REMARK VINA RESULT:      -5.4      2.321      4.369
REMARK  5 active torsions:
REMARK  status: ('A' for Active; 'I' for Inactive)
REMARK    1  A    between atoms: C_9  and  C_1 
REMARK    2  A    between atoms: S_2  and  N_8 
REMARK    3  A    between atoms: C_10  and  S_2 
REMARK    4  A    between atoms: C_14  and  C_3 
REMARK    5  A    between atoms: N_8  and  C_9 
ROOT
ATOM      1  C   UNL d   1      53.594  33.389  54.248  0.00  0.00     0.078 A 
ATOM      2  C   UNL d   1      53.044  34.000  54.111  0.00  0.00     0.008 A 
ATOM      3  C   UNL d   1      54.241  33.520  54.736  0.00  0.00     0.281 A 
ATOM      4  C   UNL d   1      53.158  34.730  54.469  0.00  0.00     0.019 A 
ATOM      5  N   UNL d   1      54.351  34.262  55.097  0.00  0.00    -0.208 NA
ATOM      6  C   UNL d   1      53.805  34.860  54.957  0.00  0.00     0.085 A 
ATOM      7  C   UNL d   1      52.611  35.332  54.331  0.00  0.00     0.013 A 
ATOM      8  O   UNL d   1      54.794  32.899  54.872  0.00  0.00    -0.265 OA
ATOM      9  C   UNL d   1      53.918  35.595  55.316  0.00  0.00     0.020 A 
ATOM     10  C   UNL d   1      52.720  36.076  54.691  0.00  0.00     0.058 A 
ATOM     11  C   UNL d   1      53.368  36.206  55.179  0.00  0.00     0.013 A 
ATOM     12 CL   UNL d   1      52.168  36.695  54.555  0.00  0.00    -0.082 Cl
ENDROOT
BRANCH   1  13
ATOM     13  C   UNL d   1      53.484  32.646  53.888  0.00  0.00     0.117 C 
BRANCH  13  14
ATOM     14  N   UNL d   1      54.082  32.074  53.939  0.00  0.00    -0.157 NA
BRANCH  14  15
ATOM     15  S   UNL d   1      53.733  31.344  53.730  0.00  0.00     0.285 S 
ATOM     16  O   UNL d   1      53.457  31.252  54.507  0.00  0.00    -0.198 OA
ATOM     17  O   UNL d   1      54.014  31.444  52.951  0.00  0.00    -0.198 OA
BRANCH  15  18
ATOM     18  C   UNL d   1      53.386  30.619  53.521  0.00  0.00     0.105 A 
ATOM     19  C   UNL d   1      53.083  30.505  52.760  0.00  0.00     0.013 A 
ATOM     20  C   UNL d   1      52.739  29.793  52.544  0.00  0.00     0.001 A 
ATOM     21  C   UNL d   1      52.693  29.171  53.104  0.00  0.00     0.000 A 
ATOM     22  C   UNL d   1      52.996  29.285  53.865  0.00  0.00     0.001 A 
ATOM     23  C   UNL d   1      52.350  28.453  52.897  0.00  0.00     0.000 C 
ATOM     24  C   UNL d   1      53.343  30.009  54.074  0.00  0.00     0.013 A 
ENDBRANCH  15  18
ENDBRANCH  14  15
ENDBRANCH  13  14
ENDBRANCH   1  13
BRANCH   2  25
ATOM     25  C   UNL d   1      52.396  33.869  53.623  0.00  0.00     0.000 A 
ATOM     26  C   UNL d   1      51.695  33.573  53.929  0.00  0.00     0.000 A 
ATOM     27  C   UNL d   1      51.047  33.443  53.440  0.00  0.00     0.000 A 
ATOM     28  C   UNL d   1      51.089  33.607  52.637  0.00  0.00     0.000 A 
ATOM     29  C   UNL d   1      51.801  33.909  52.315  0.00  0.00     0.000 A 
ATOM     30  C   UNL d   1      52.446  34.038  52.808  0.00  0.00     0.000 A 
ENDBRANCH   2  25
TORSDOF 5
ENDMDL
MODEL 4
REMARK VINA RESULT:      -5.4      2.522      5.693
REMARK  5 active torsions:
REMARK  status: ('A' for Active; 'I' for Inactive)
REMARK    1  A    between atoms: C_9  and  C_1 
REMARK    2  A    between atoms: S_2  and  N_8 
REMARK    3  A    between atoms: C_10  and  S_2 
REMARK    4  A    between atoms: C_14  and  C_3 
REMARK    5  A    between atoms: N_8  and  C_9 
ROOT
ATOM      1  C   UNL d   1      48.485  34.938  51.821  0.00  0.00     0.078 A 
ATOM      2  C   UNL d   1      47.916  35.413  52.201  0.00  0.00     0.008 A 
ATOM      3  C   UNL d   1      48.340  34.644  51.069  0.00  0.00     0.281 A 
ATOM      4  C   UNL d   1      47.212  35.582  51.815  0.00  0.00     0.019 A 
ATOM      5  N   UNL d   1      47.624  34.819  50.681  0.00  0.00    -0.208 NA
ATOM      6  C   UNL d   1      47.067  35.288  51.062  0.00  0.00     0.085 A 
ATOM      7  C   UNL d   1      46.651  36.053  52.195  0.00  0.00     0.013 A 
ATOM      8  O   UNL d   1      48.918  34.164  50.688  0.00  0.00    -0.265 OA
ATOM      9  C   UNL d   1      46.358  35.459  50.675  0.00  0.00     0.020 A 
ATOM     10  C   UNL d   1      45.934  36.228  51.809  0.00  0.00     0.058 A 
ATOM     11  C   UNL d   1      45.789  35.935  51.056  0.00  0.00     0.013 A 
ATOM     12 CL   UNL d   1      45.356  36.708  52.189  0.00  0.00    -0.082 Cl
ENDROOT
BRANCH   1  13
ATOM     13  C   UNL d   1      49.202  34.762  52.208  0.00  0.00     0.117 C 
BRANCH  13  14
ATOM     14  N   UNL d   1      49.726  34.216  51.870  0.00  0.00    -0.157 NA
BRANCH  14  15
ATOM     15  S   UNL d   1      50.397  34.189  52.369  0.00  0.00     0.285 S 
ATOM     16  O   UNL d   1      50.786  34.733  51.878  0.00  0.00    -0.198 OA
ATOM     17  O   UNL d   1      49.998  33.642  52.857  0.00  0.00    -0.198 OA
BRANCH  15  18
ATOM     18  C   UNL d   1      51.061  34.161  52.865  0.00  0.00     0.105 A 
ATOM     19  C   UNL d   1      51.628  34.763  52.839  0.00  0.00     0.013 A 
ATOM     20  C   UNL d   1      52.288  34.744  53.325  0.00  0.00     0.001 A 
ATOM     21  C   UNL d   1      52.390  34.105  53.857  0.00  0.00     0.000 A 
ATOM     22  C   UNL d   1      51.823  33.503  53.884  0.00  0.00     0.001 A 
ATOM     23  C   UNL d   1      53.048  34.077  54.349  0.00  0.00     0.000 C 
ATOM     24  C   UNL d   1      51.159  33.531  53.388  0.00  0.00     0.013 A 
ENDBRANCH  15  18
ENDBRANCH  14  15
ENDBRANCH  13  14
ENDBRANCH   1  13
BRANCH   2  25
ATOM     25  C   UNL d   1      48.061  35.707  52.955  0.00  0.00     0.000 A 
ATOM     26  C   UNL d   1      48.466  36.413  53.057  0.00  0.00     0.000 A 
ATOM     27  C   UNL d   1      48.611  36.708  53.811  0.00  0.00     0.000 A 
ATOM     28  C   UNL d   1      48.354  36.300  54.475  0.00  0.00     0.000 A 
ATOM     29  C   UNL d   1      47.940  35.578  54.381  0.00  0.00     0.000 A 
ATOM     30  C   UNL d   1      47.798  35.288  53.625  0.00  0.00     0.000 A 
ENDBRANCH   2  25
TORSDOF 5
ENDMDL
MODEL 5
REMARK VINA RESULT:      -5.3      1.262      2.324
REMARK  5 active torsions:
REMARK  status: ('A' for Active; 'I' for Inactive)
REMARK    1  A    between atoms: C_9  and  C_1 
REMARK    2  A    between atoms: S_2  and  N_8 
REMARK    3  A    between atoms: C_10  and  S_2 
REMARK    4  A    between atoms: C_14  and  C_3 
REMARK    5  A    between atoms: N_8  and  C_9 
ROOT
ATOM      1  C   UNL d   1      52.414  34.130  53.604  0.00  0.00     0.078 A 
ATOM      2  C   UNL d   1      52.751  33.407  53.841  0.00  0.00     0.008 A 
ATOM      3  C   UNL d   1      52.677  34.835  53.932  0.00  0.00     0.281 A 
ATOM      4  C   UNL d   1      53.349  33.408  54.404  0.00  0.00     0.019 A 
ATOM      5  N   UNL d   1      53.283  34.831  54.503  0.00  0.00    -0.208 NA
ATOM      6  C   UNL d   1      53.612  34.113  54.732  0.00  0.00     0.085 A 
ATOM      7  C   UNL d   1      53.680  32.690  54.636  0.00  0.00     0.013 A 
ATOM      8  O   UNL d   1      52.332  35.565  53.689  0.00  0.00    -0.265 OA
ATOM      9  C   UNL d   1      54.213  34.113  55.299  0.00  0.00     0.020 A 
ATOM     10  C   UNL d   1      54.287  32.684  55.207  0.00  0.00     0.058 A 
ATOM     11  C   UNL d   1      54.551  33.389  55.535  0.00  0.00     0.013 A 
ATOM     12 CL   UNL d   1      54.631  31.956  55.450  0.00  0.00    -0.082 Cl
ENDROOT
BRANCH   1  13
ATOM     13  C   UNL d   1      51.807  34.136  53.032  0.00  0.00     0.117 C 
BRANCH  13  14
ATOM     14  N   UNL d   1      51.647  34.833  52.612  0.00  0.00    -0.157 NA
BRANCH  14  15
ATOM     15  S   UNL d   1      50.915  34.714  52.224  0.00  0.00     0.285 S 
ATOM     16  O   UNL d   1      50.513  34.885  52.930  0.00  0.00    -0.198 OA
ATOM     17  O   UNL d   1      51.327  34.544  51.520  0.00  0.00    -0.198 OA
BRANCH  15  18
ATOM     18  C   UNL d   1      50.190  34.597  51.839  0.00  0.00     0.105 A 
ATOM     19  C   UNL d   1      49.478  34.742  52.234  0.00  0.00     0.013 A 
ATOM     20  C   UNL d   1      48.757  34.629  51.863  0.00  0.00     0.001 A 
ATOM     21  C   UNL d   1      48.739  34.362  51.068  0.00  0.00     0.000 A 
ATOM     22  C   UNL d   1      49.451  34.217  50.672  0.00  0.00     0.001 A 
ATOM     23  C   UNL d   1      48.021  34.245  50.686  0.00  0.00     0.000 C 
ATOM     24  C   UNL d   1      50.177  34.334  51.057  0.00  0.00     0.013 A 
ENDBRANCH  15  18
ENDBRANCH  14  15
ENDBRANCH  13  14
ENDBRANCH   1  13
BRANCH   2  25
ATOM     25  C   UNL d   1      52.487  32.701  53.512  0.00  0.00     0.000 A 
ATOM     26  C   UNL d   1      51.816  32.330  53.804  0.00  0.00     0.000 A 
ATOM     27  C   UNL d   1      51.553  31.624  53.475  0.00  0.00     0.000 A 
ATOM     28  C   UNL d   1      51.955  31.278  52.850  0.00  0.00     0.000 A 
ATOM     29  C   UNL d   1      52.641  31.650  52.545  0.00  0.00     0.000 A 
ATOM     30  C   UNL d   1      52.901  32.355  52.877  0.00  0.00     0.000 A 
ENDBRANCH   2  25
TORSDOF 5
ENDMDL
