MODEL 1
REMARK VINA RESULT:      -8.7      0.000      0.000
REMARK  5 active torsions:
REMARK  status: ('A' for Active; 'I' for Inactive)
REMARK    1  A    between atoms: C_6  and  C_1 
REMARK    2  A    between atoms: C_7  and  C_6 
REMARK    3  A    between atoms: C_11  and  C_19 
REMARK    4  A    between atoms: O_18  and  C_17 
REMARK    5  A    between atoms: C_19  and  O_18 
ROOT
ATOM      1  C   UNL d   1      52.483  33.680  53.062  0.00  0.00     0.139 A 
ATOM      2  C   UNL d   1      53.355  32.833  53.630  0.00  0.00     0.064 A 
ATOM      3  C   UNL d   1      53.156  33.627  53.544  0.00  0.00     0.220 A 
ATOM      4  C   UNL d   1      52.807  32.387  53.203  0.00  0.00     0.105 A 
ATOM      5  O   UNL d   1      52.267  32.914  52.850  0.00  0.00    -0.304 OA
ATOM      6  C   UNL d   1      52.863  31.566  53.184  0.00  0.00     0.049 A 
ATOM      7  C   UNL d   1      53.960  32.459  54.040  0.00  0.00     0.007 A 
ATOM      8  O   UNL d   1      53.556  34.265  53.879  0.00  0.00    -0.284 OA
ATOM      9  C   UNL d   1      53.474  31.196  53.598  0.00  0.00     0.097 A 
ATOM     10  C   UNL d   1      54.020  31.640  54.024  0.00  0.00     0.025 A 
ENDROOT
BRANCH   1  11
ATOM     11  C   UNL d   1      52.096  34.374  52.833  0.00  0.00     0.034 C 
BRANCH  11  12
ATOM     12  C   UNL d   1      51.298  34.358  52.633  0.00  0.00     0.032 A 
ATOM     13  S   UNL d   1      50.664  34.429  53.151  0.00  0.00    -0.086 SA
ATOM     14  C   UNL d   1      49.963  34.382  52.709  0.00  0.00     0.035 A 
ATOM     15  C   UNL d   1      50.169  34.281  51.917  0.00  0.00     0.007 A 
ATOM     16  C   UNL d   1      50.996  34.265  51.862  0.00  0.00     0.007 A 
ENDBRANCH  11  12
ENDBRANCH   1  11
BRANCH   9  17
ATOM     17  O   UNL d   1      53.528  30.372  53.577  0.00  0.00    -0.319 OA
BRANCH  17  18
ATOM     18  C   UNL d   1      53.238  29.932  54.215  0.00  0.00     0.246 C 
BRANCH  18  19
ATOM     19  C   UNL d   1      53.169  29.115  54.145  0.00  0.00     0.217 C 
ATOM     20  O   UNL d   1      52.817  28.782  53.475  0.00  0.00    -0.645 OA
ATOM     21  O   UNL d   1      53.471  28.592  54.784  0.00  0.00    -0.645 OA
ENDBRANCH  18  19
ENDBRANCH  17  18
ENDBRANCH   9  17
TORSDOF 5
ENDMDL
MODEL 2
REMARK VINA RESULT:      -8.3      1.797      4.412
REMARK  5 active torsions:
REMARK  status: ('A' for Active; 'I' for Inactive)
REMARK    1  A    between atoms: C_6  and  C_1 
REMARK    2  A    between atoms: C_7  and  C_6 
REMARK    3  A    between atoms: C_11  and  C_19 
REMARK    4  A    between atoms: O_18  and  C_17 
REMARK    5  A    between atoms: C_19  and  O_18 
ROOT
ATOM      1  C   UNL d   1      53.378  32.233  53.359  0.00  0.00     0.139 A 
ATOM      2  C   UNL d   1      52.914  33.492  53.389  0.00  0.00     0.064 A 
ATOM      3  C   UNL d   1      53.531  33.003  53.627  0.00  0.00     0.220 A 
ATOM      4  C   UNL d   1      52.372  33.030  52.970  0.00  0.00     0.105 A 
ATOM      5  O   UNL d   1      52.662  32.249  52.953  0.00  0.00    -0.304 OA
ATOM      6  C   UNL d   1      51.690  33.369  52.659  0.00  0.00     0.049 A 
ATOM      7  C   UNL d   1      52.775  34.293  53.497  0.00  0.00     0.007 A 
ATOM      8  O   UNL d   1      54.193  33.235  54.060  0.00  0.00    -0.284 OA
ATOM      9  C   UNL d   1      51.556  34.176  52.772  0.00  0.00     0.097 A 
ATOM     10  C   UNL d   1      52.095  34.636  53.188  0.00  0.00     0.025 A 
ENDROOT
BRANCH   1  11
ATOM     11  C   UNL d   1      53.855  31.568  53.475  0.00  0.00     0.034 C 
BRANCH  11  12
ATOM     12  C   UNL d   1      53.521  30.816  53.492  0.00  0.00     0.032 A 
ATOM     13  S   UNL d   1      53.370  30.365  54.162  0.00  0.00    -0.086 SA
ATOM     14  C   UNL d   1      53.032  29.646  53.920  0.00  0.00     0.035 A 
ATOM     15  C   UNL d   1      52.975  29.659  53.098  0.00  0.00     0.007 A 
ATOM     16  C   UNL d   1      53.277  30.381  52.825  0.00  0.00     0.007 A 
ENDBRANCH  11  12
ENDBRANCH   1  11
BRANCH   9  17
ATOM     17  O   UNL d   1      50.870  34.513  52.458  0.00  0.00    -0.319 OA
BRANCH  17  18
ATOM     18  C   UNL d   1      50.153  34.416  52.859  0.00  0.00     0.246 C 
BRANCH  18  19
ATOM     19  C   UNL d   1      49.473  34.776  52.565  0.00  0.00     0.217 C 
ATOM     20  O   UNL d   1      49.025  35.278  53.046  0.00  0.00    -0.645 OA
ATOM     21  O   UNL d   1      49.221  34.628  51.736  0.00  0.00    -0.645 OA
ENDBRANCH  18  19
ENDBRANCH  17  18
ENDBRANCH   9  17
TORSDOF 5
ENDMDL
MODEL 3
REMARK VINA RESULT:      -8.0      2.079      4.777
REMARK  5 active torsions:
REMARK  status: ('A' for Active; 'I' for Inactive)
REMARK    1  A    between atoms: C_6  and  C_1 
REMARK    2  A    between atoms: C_7  and  C_6 
REMARK    3  A    between atoms: C_11  and  C_19 
REMARK    4  A    between atoms: O_18  and  C_17 
REMARK    5  A    between atoms: C_19  and  O_18 
ROOT
ATOM      1  C   UNL d   1      53.146  33.076  53.407  0.00  0.00     0.139 A 
ATOM      2  C   UNL d   1      51.921  33.193  52.871  0.00  0.00     0.064 A 
ATOM      3  C   UNL d   1      52.571  32.694  52.947  0.00  0.00     0.220 A 
ATOM      4  C   UNL d   1      52.087  33.890  53.283  0.00  0.00     0.105 A 
ATOM      5  O   UNL d   1      52.848  33.815  53.616  0.00  0.00    -0.304 OA
ATOM      6  C   UNL d   1      51.536  34.500  53.308  0.00  0.00     0.049 A 
ATOM      7  C   UNL d   1      51.204  33.107  52.482  0.00  0.00     0.007 A 
ATOM      8  O   UNL d   1      52.642  31.941  52.622  0.00  0.00    -0.284 OA
ATOM      9  C   UNL d   1      50.816  34.406  52.915  0.00  0.00     0.097 A 
ATOM     10  C   UNL d   1      50.651  33.714  52.504  0.00  0.00     0.025 A 
ENDROOT
BRANCH   1  11
ATOM     11  C   UNL d   1      53.885  32.773  53.621  0.00  0.00     0.034 C 
BRANCH  11  12
ATOM     12  C   UNL d   1      54.257  33.032  54.308  0.00  0.00     0.032 A 
ATOM     13  S   UNL d   1      54.868  33.580  54.355  0.00  0.00    -0.086 SA
ATOM     14  C   UNL d   1      55.071  33.674  55.154  0.00  0.00     0.035 A 
ATOM     15  C   UNL d   1      54.581  33.181  55.598  0.00  0.00     0.007 A 
ATOM     16  C   UNL d   1      54.074  32.780  55.081  0.00  0.00     0.007 A 
ENDBRANCH  11  12
ENDBRANCH   1  11
BRANCH   9  17
ATOM     17  O   UNL d   1      50.265  35.021  52.941  0.00  0.00    -0.319 OA
BRANCH  17  18
ATOM     18  C   UNL d   1      49.458  34.839  52.950  0.00  0.00     0.246 C 
BRANCH  18  19
ATOM     19  C   UNL d   1      48.906  35.449  52.938  0.00  0.00     0.217 C 
ATOM     20  O   UNL d   1      48.392  35.535  52.296  0.00  0.00    -0.645 OA
ATOM     21  O   UNL d   1      48.861  36.014  53.610  0.00  0.00    -0.645 OA
ENDBRANCH  18  19
ENDBRANCH  17  18
ENDBRANCH   9  17
TORSDOF 5
ENDMDL
MODEL 4
REMARK VINA RESULT:      -7.7      1.496      2.094
REMARK  5 active torsions:
REMARK  status: ('A' for Active; 'I' for Inactive)
REMARK    1  A    between atoms: C_6  and  C_1 
REMARK    2  A    between atoms: C_7  and  C_6 
REMARK    3  A    between atoms: C_11  and  C_19 
REMARK    4  A    between atoms: O_18  and  C_17 
REMARK    5  A    between atoms: C_19  and  O_18 
ROOT
ATOM      1  C   UNL d   1      53.210  33.145  53.244  0.00  0.00     0.139 A 
ATOM      2  C   UNL d   1      52.846  31.879  52.987  0.00  0.00     0.064 A 
ATOM      3  C   UNL d   1      52.714  32.665  52.783  0.00  0.00     0.220 A 
ATOM      4  C   UNL d   1      53.425  31.864  53.576  0.00  0.00     0.105 A 
ATOM      5  O   UNL d   1      53.650  32.651  53.734  0.00  0.00    -0.304 OA
ATOM      6  C   UNL d   1      53.675  31.148  53.895  0.00  0.00     0.049 A 
ATOM      7  C   UNL d   1      52.517  31.178  52.716  0.00  0.00     0.007 A 
ATOM      8  O   UNL d   1      52.180  32.935  52.217  0.00  0.00    -0.284 OA
ATOM      9  C   UNL d   1      53.340  30.446  53.617  0.00  0.00     0.097 A 
ATOM     10  C   UNL d   1      52.764  30.461  53.031  0.00  0.00     0.025 A 
ENDROOT
BRANCH   1  11
ATOM     11  C   UNL d   1      53.258  33.970  53.218  0.00  0.00     0.034 C 
BRANCH  11  12
ATOM     12  C   UNL d   1      53.205  34.410  53.912  0.00  0.00     0.032 A 
ATOM     13  S   UNL d   1      52.596  34.922  54.119  0.00  0.00    -0.086 SA
ATOM     14  C   UNL d   1      52.772  35.246  54.863  0.00  0.00     0.035 A 
ATOM     15  C   UNL d   1      53.493  34.930  55.112  0.00  0.00     0.007 A 
ATOM     16  C   UNL d   1      53.767  34.412  54.527  0.00  0.00     0.007 A 
ENDBRANCH  11  12
ENDBRANCH   1  11
BRANCH   9  17
ATOM     17  O   UNL d   1      53.593  29.729  53.939  0.00  0.00    -0.319 OA
BRANCH  17  18
ATOM     18  C   UNL d   1      53.072  29.290  54.407  0.00  0.00     0.246 C 
BRANCH  18  19
ATOM     19  C   UNL d   1      53.357  28.648  54.837  0.00  0.00     0.217 C 
ATOM     20  O   UNL d   1      53.722  28.015  54.450  0.00  0.00    -0.645 OA
ATOM     21  O   UNL d   1      53.273  28.633  55.712  0.00  0.00    -0.645 OA
ENDBRANCH  18  19
ENDBRANCH  17  18
ENDBRANCH   9  17
TORSDOF 5
ENDMDL
MODEL 5
REMARK VINA RESULT:      -7.2      1.989      4.675
REMARK  5 active torsions:
REMARK  status: ('A' for Active; 'I' for Inactive)
REMARK    1  A    between atoms: C_6  and  C_1 
REMARK    2  A    between atoms: C_7  and  C_6 
REMARK    3  A    between atoms: C_11  and  C_19 
REMARK    4  A    between atoms: O_18  and  C_17 
REMARK    5  A    between atoms: C_19  and  O_18 
ROOT
ATOM      1  C   UNL d   1      53.316  30.913  53.312  0.00  0.00     0.139 A 
ATOM      2  C   UNL d   1      52.964  32.194  53.123  0.00  0.00     0.064 A 
ATOM      3  C   UNL d   1      52.894  31.432  52.821  0.00  0.00     0.220 A 
ATOM      4  C   UNL d   1      53.431  32.155  53.803  0.00  0.00     0.105 A 
ATOM      5  O   UNL d   1      53.648  31.359  53.919  0.00  0.00    -0.304 OA
ATOM      6  C   UNL d   1      53.601  32.837  54.231  0.00  0.00     0.049 A 
ATOM      7  C   UNL d   1      52.667  32.915  52.869  0.00  0.00     0.007 A 
ATOM      8  O   UNL d   1      52.475  31.216  52.146  0.00  0.00    -0.284 OA
ATOM      9  C   UNL d   1      53.298  33.560  53.970  0.00  0.00     0.097 A 
ATOM     10  C   UNL d   1      52.834  33.599  53.293  0.00  0.00     0.025 A 
ENDROOT
BRANCH   1  11
ATOM     11  C   UNL d   1      53.392  30.096  53.213  0.00  0.00     0.034 C 
BRANCH  11  12
ATOM     12  C   UNL d   1      53.332  29.592  53.861  0.00  0.00     0.032 A 
ATOM     13  S   UNL d   1      52.637  29.325  54.209  0.00  0.00    -0.086 SA
ATOM     14  C   UNL d   1      52.838  28.830  54.844  0.00  0.00     0.035 A 
ATOM     15  C   UNL d   1      53.661  28.794  54.885  0.00  0.00     0.007 A 
ATOM     16  C   UNL d   1      53.974  29.264  54.278  0.00  0.00     0.007 A 
ENDBRANCH  11  12
ENDBRANCH   1  11
BRANCH   9  17
ATOM     17  O   UNL d   1      53.470  34.243  54.401  0.00  0.00    -0.319 OA
BRANCH  17  18
ATOM     18  C   UNL d   1      52.971  34.899  54.334  0.00  0.00     0.246 C 
BRANCH  18  19
ATOM     19  C   UNL d   1      53.115  35.565  54.796  0.00  0.00     0.217 C 
ATOM     20  O   UNL d   1      53.060  35.523  55.620  0.00  0.00    -0.645 OA
ATOM     21  O   UNL d   1      53.329  36.327  54.413  0.00  0.00    -0.645 OA
ENDBRANCH  18  19
ENDBRANCH  17  18
ENDBRANCH   9  17
TORSDOF 5
ENDMDL
