MODEL 1
REMARK VINA RESULT:      -0.9      0.000      0.000
REMARK  5 active torsions:
REMARK  status: ('A' for Active; 'I' for Inactive)
REMARK    1  A    between atoms: N_6  and  C_1 
REMARK    2  A    between atoms: C_10  and  C_2 
REMARK       I    between atoms: C_9  and  N_6 
REMARK    3  A    between atoms: C_14  and  C_9 
REMARK    4  A    between atoms: C_13  and  C_15 
REMARK    5  A    between atoms: C_19  and  C_13 
ROOT
ATOM      1  N   UNL d   1      32.796  19.712 -22.712  0.00  0.00    -0.201 NA
ATOM      2  C   UNL d   1      33.016  19.863 -21.931  0.00  0.00     0.280 C 
ATOM      3  O   UNL d   1      33.241  19.247 -21.436  0.00  0.00    -0.265 OA
ENDROOT
BRANCH   1   4
ATOM      4  C   UNL d   1      32.801  18.936 -23.002  0.00  0.00     0.118 A 
ATOM      5  C   UNL d   1      32.680  18.706 -23.785  0.00  0.00     0.083 A 
ATOM      6  C   UNL d   1      32.732  17.888 -23.815  0.00  0.00     0.008 A 
ATOM      7  C   UNL d   1      32.659  17.361 -24.449  0.00  0.00    -0.004 A 
ATOM      8  C   UNL d   1      32.884  17.609 -23.064  0.00  0.00     0.028 A 
ATOM      9  C   UNL d   1      32.740  16.550 -24.315  0.00  0.00     0.099 A 
ATOM     10  C   UNL d   1      32.586  16.833 -25.076  0.00  0.00     0.029 C 
ATOM     11  C   UNL d   1      32.819  15.739 -24.187  0.00  0.00     0.029 C 
ATOM     12  N   UNL d   1      32.893  16.266 -23.552  0.00  0.00    -0.294 NA
ATOM     13  C   UNL d   1      32.966  16.794 -22.926  0.00  0.00     0.104 A 
ATOM     14  C   UNL d   1      33.077  16.043 -22.597  0.00  0.00     0.029 C 
ATOM     15  C   UNL d   1      33.071  17.143 -22.186  0.00  0.00     0.029 C 
ATOM     16  S   UNL d   1      32.928  18.256 -22.551  0.00  0.00    -0.070 SA
BRANCH   5  17
ATOM     17  C   UNL d   1      32.534  19.215 -24.410  0.00  0.00     0.299 C 
ATOM     18  O   UNL d   1      31.752  19.424 -24.584  0.00  0.00    -0.264 OA
ATOM     19  N   UNL d   1      33.156  19.518 -24.862  0.00  0.00    -0.102 N 
ENDBRANCH   5  17
ENDBRANCH   1   4
BRANCH   2  20
ATOM     20  C   UNL d   1      33.012  20.626 -21.646  0.00  0.00     0.058 A 
ATOM     21  C   UNL d   1      32.776  21.249 -22.134  0.00  0.00     0.005 A 
ATOM     22  C   UNL d   1      32.771  22.024 -21.844  0.00  0.00     0.003 A 
ATOM     23  C   UNL d   1      33.004  22.177 -21.067  0.00  0.00     0.039 A 
ATOM     24  C   UNL d   1      33.237  21.559 -20.590  0.00  0.00     0.003 A 
ATOM     25  C   UNL d   1      33.241  20.783 -20.880  0.00  0.00     0.005 A 
BRANCH  23  26
ATOM     26  C   UNL d   1      32.998  22.950 -20.783  0.00  0.00     0.196 C 
ATOM     27  O   UNL d   1      33.235  23.566 -21.266  0.00  0.00    -0.287 OA
BRANCH  26  28
ATOM     28  C   UNL d   1      32.754  23.100 -20.012  0.00  0.00     0.039 A 
ATOM     29  C   UNL d   1      33.229  22.901 -19.377  0.00  0.00     0.003 A 
ATOM     30  C   UNL d   1      32.985  23.051 -18.607  0.00  0.00     0.000 A 
ATOM     31  C   UNL d   1      32.251  23.407 -18.474  0.00  0.00     0.000 A 
ATOM     32  C   UNL d   1      31.767  23.610 -19.113  0.00  0.00     0.000 A 
ATOM     33  C   UNL d   1      32.020  23.456 -19.880  0.00  0.00     0.003 A 
ENDBRANCH  26  28
ENDBRANCH  23  26
ENDBRANCH   2  20
TORSDOF 5
ENDMDL
