MODEL 1
REMARK VINA RESULT:      58.6      0.000      0.000
REMARK  3 active torsions:
REMARK  status: ('A' for Active; 'I' for Inactive)
REMARK    1  A    between atoms: C_3  and  C_1 
REMARK    2  A    between atoms: C_5  and  C_3 
REMARK    3  A    between atoms: C_11  and  C_5 
ROOT
ATOM      1  C   UNL d   1      60.696  48.870  50.568  0.00  0.00     0.109 C 
ATOM      2  C   UNL d   1      59.955  49.113  50.313  0.00  0.00     0.105 C 
ATOM      3  N   UNL d   1      59.211  49.362  50.058  0.00  0.00    -0.191 NA
ENDROOT
BRANCH   1   4
ATOM      4  C   UNL d   1      60.941  48.092  50.430  0.00  0.00     0.192 A 
ATOM      5  N   UNL d   1      60.579  47.398  50.725  0.00  0.00    -0.220 NA
ATOM      6  C   UNL d   1      61.009  46.743  50.448  0.00  0.00     0.106 A 
ATOM      7  C   UNL d   1      60.908  45.932  50.561  0.00  0.00     0.021 A 
ATOM      8  C   UNL d   1      61.637  47.024  49.982  0.00  0.00     0.119 A 
ATOM      9  C   UNL d   1      61.432  45.400  50.210  0.00  0.00     0.002 A 
ATOM     10  C   UNL d   1      62.060  45.681  49.744  0.00  0.00     0.002 A 
ATOM     11  C   UNL d   1      62.161  46.492  49.631  0.00  0.00     0.026 A 
ATOM     12  O   UNL d   1      61.599  47.853  49.968  0.00  0.00    -0.287 OA
ENDBRANCH   1   4
BRANCH   1  13
ATOM     13  C   UNL d   1      61.195  49.397  50.960  0.00  0.00     0.014 C 
BRANCH  13  14
ATOM     14  C   UNL d   1      61.127  49.501  51.778  0.00  0.00     0.004 A 
ATOM     15  C   UNL d   1      60.379  49.505  52.125  0.00  0.00     0.021 A 
ATOM     16  C   UNL d   1      60.312  49.609  52.943  0.00  0.00     0.099 A 
ATOM     17  N   UNL d   1      60.988  49.708  53.404  0.00  0.00    -0.242 NA
ATOM     18  C   UNL d   1      61.746  49.704  53.049  0.00  0.00     0.099 A 
ATOM     19  C   UNL d   1      61.804  49.599  52.231  0.00  0.00     0.021 A 
ENDBRANCH  13  14
ENDBRANCH   1  13
TORSDOF 3
ENDMDL
MODEL 2
REMARK VINA RESULT:      61.3      9.073     10.395
REMARK  3 active torsions:
REMARK  status: ('A' for Active; 'I' for Inactive)
REMARK    1  A    between atoms: C_3  and  C_1 
REMARK    2  A    between atoms: C_5  and  C_3 
REMARK    3  A    between atoms: C_11  and  C_5 
ROOT
ATOM      1  C   UNL d   1      56.609  39.155  54.768  0.00  0.00     0.109 C 
ATOM      2  C   UNL d   1      56.362  38.384  54.641  0.00  0.00     0.105 C 
ATOM      3  N   UNL d   1      56.109  37.610  54.510  0.00  0.00    -0.191 NA
ENDROOT
BRANCH   1   4
ATOM      4  C   UNL d   1      57.365  39.298  55.070  0.00  0.00     0.192 A 
ATOM      5  N   UNL d   1      57.745  38.871  55.681  0.00  0.00    -0.220 NA
ATOM      6  C   UNL d   1      58.496  39.205  55.804  0.00  0.00     0.106 A 
ATOM      7  C   UNL d   1      59.103  39.013  56.328  0.00  0.00     0.021 A 
ATOM      8  C   UNL d   1      58.588  39.837  55.273  0.00  0.00     0.119 A 
ATOM      9  C   UNL d   1      59.802  39.451  56.325  0.00  0.00     0.002 A 
ATOM     10  C   UNL d   1      59.895  40.083  55.794  0.00  0.00     0.002 A 
ATOM     11  C   UNL d   1      59.288  40.274  55.269  0.00  0.00     0.026 A 
ATOM     12  O   UNL d   1      57.895  39.898  54.819  0.00  0.00    -0.287 OA
ENDBRANCH   1   4
BRANCH   1  13
ATOM     13  C   UNL d   1      56.106  39.787  54.598  0.00  0.00     0.014 C 
BRANCH  13  14
ATOM     14  C   UNL d   1      56.083  40.103  53.834  0.00  0.00     0.004 A 
ATOM     15  C   UNL d   1      56.064  39.594  53.185  0.00  0.00     0.021 A 
ATOM     16  C   UNL d   1      56.040  39.909  52.421  0.00  0.00     0.099 A 
ATOM     17  N   UNL d   1      56.036  40.727  52.312  0.00  0.00    -0.242 NA
ATOM     18  C   UNL d   1      56.056  41.241  52.971  0.00  0.00     0.099 A 
ATOM     19  C   UNL d   1      56.079  40.917  53.732  0.00  0.00     0.021 A 
ENDBRANCH  13  14
ENDBRANCH   1  13
TORSDOF 3
ENDMDL
