MODEL 1
REMARK VINA RESULT:      -5.4      0.000      0.000
REMARK  10 active torsions:
REMARK  status: ('A' for Active; 'I' for Inactive)
REMARK    1  A    between atoms: C_14  and  N_1 
REMARK    2  A    between atoms: C_7  and  N_3 
REMARK    3  A    between atoms: C_9  and  C_7 
REMARK       I    between atoms: N_18  and  C_9 
REMARK    4  A    between atoms: C_11  and  C_24 
REMARK       I    between atoms: N_12  and  C_11 
REMARK    5  A    between atoms: C_21  and  N_12 
REMARK    6  A    between atoms: C_13  and  C_25 
REMARK    7  A    between atoms: C_23  and  C_14 
REMARK    8  A    between atoms: C_22  and  N_18 
REMARK    9  A    between atoms: C_25  and  C_22 
REMARK   10  A    between atoms: C_24  and  C_23 
ROOT
ATOM      1  N   UNL d   1     -41.002  13.967  20.828  0.00  0.00    -0.226 N 
ATOM      2  C   UNL d   1     -40.972  14.512  20.209  0.00  0.00     0.342 A 
ATOM      3  N   UNL d   1     -40.427  15.137  20.236  0.00  0.00    -0.254 N 
ATOM      4  C   UNL d   1     -40.486  14.046  21.473  0.00  0.00     0.270 A 
ATOM      5  C   UNL d   1     -39.945  14.668  21.496  0.00  0.00     0.073 A 
ATOM      6  C   UNL d   1     -39.916  15.213  20.878  0.00  0.00     0.073 A 
ATOM      7  O   UNL d   1     -41.486  14.437  19.562  0.00  0.00    -0.245 OA
ATOM      8  O   UNL d   1     -40.515  13.501  22.091  0.00  0.00    -0.266 OA
ATOM      9  C   UNL d   1     -39.435  14.743  22.138  0.00  0.00     0.006 A 
ATOM     10  C   UNL d   1     -39.376  15.834  20.901  0.00  0.00     0.018 A 
ATOM     11  C   UNL d   1     -38.895  15.364  22.161  0.00  0.00     0.000 A 
ATOM     12  C   UNL d   1     -38.866  15.910  21.542  0.00  0.00     0.002 A 
ENDROOT
BRANCH   3  13
ATOM     13  C   UNL d   1     -40.397  15.683  19.617  0.00  0.00     0.147 C 
BRANCH  13  14
ATOM     14  C   UNL d   1     -40.255  15.415  18.849  0.00  0.00     0.297 C 
ATOM     15  O   UNL d   1     -40.882  15.249  18.340  0.00  0.00    -0.264 OA
ATOM     16  N   UNL d   1     -39.474  15.311  18.580  0.00  0.00    -0.205 NA
BRANCH  16  17
ATOM     17  C   UNL d   1     -39.323  15.043  17.812  0.00  0.00     0.102 C 
BRANCH  17  18
ATOM     18  C   UNL d   1     -38.555  15.069  17.510  0.00  0.00     0.021 C 
BRANCH  18  19
ATOM     19  C   UNL d   1     -38.350  14.612  16.855  0.00  0.00     0.002 A 
ATOM     20  C   UNL d   1     -38.195  14.971  16.129  0.00  0.00     0.000 A 
ATOM     21  C   UNL d   1     -37.991  14.516  15.478  0.00  0.00     0.000 A 
ATOM     22  C   UNL d   1     -37.940  13.694  15.552  0.00  0.00     0.000 A 
ATOM     23  C   UNL d   1     -38.094  13.335  16.278  0.00  0.00     0.000 A 
ATOM     24  C   UNL d   1     -38.300  13.792  16.933  0.00  0.00     0.000 A 
ENDBRANCH  18  19
ENDBRANCH  17  18
ENDBRANCH  16  17
ENDBRANCH  13  14
ENDBRANCH   3  13
BRANCH   1  25
ATOM     25  C   UNL d   1     -41.545  13.343  20.803  0.00  0.00     0.088 C 
BRANCH  25  26
ATOM     26  C   UNL d   1     -42.260  13.393  21.211  0.00  0.00     0.024 C 
BRANCH  26  27
ATOM     27  C   UNL d   1     -42.909  12.945  20.978  0.00  0.00     0.064 C 
BRANCH  27  28
ATOM     28  C   UNL d   1     -43.516  12.785  21.526  0.00  0.00     0.279 C 
ATOM     29  N   UNL d   1     -44.244  13.166  21.455  0.00  0.00    -0.208 NA
ATOM     30  O   UNL d   1     -43.396  12.248  22.140  0.00  0.00    -0.265 OA
BRANCH  29  31
ATOM     31  C   UNL d   1     -44.855  13.018  21.989  0.00  0.00     0.085 A 
ATOM     32  C   UNL d   1     -45.102  12.336  22.390  0.00  0.00     0.019 A 
ATOM     33  C   UNL d   1     -45.751  12.533  22.854  0.00  0.00     0.002 A 
ATOM     34  C   UNL d   1     -45.912  13.335  22.744  0.00  0.00     0.002 A 
ATOM     35  C   UNL d   1     -45.365  13.638  22.215  0.00  0.00     0.019 A 
ENDBRANCH  29  31
ENDBRANCH  27  28
ENDBRANCH  26  27
ENDBRANCH  25  26
ENDBRANCH   1  25
TORSDOF 10
ENDMDL
MODEL 2
REMARK VINA RESULT:      -4.7      0.884      6.349
REMARK  10 active torsions:
REMARK  status: ('A' for Active; 'I' for Inactive)
REMARK    1  A    between atoms: C_14  and  N_1 
REMARK    2  A    between atoms: C_7  and  N_3 
REMARK    3  A    between atoms: C_9  and  C_7 
REMARK       I    between atoms: N_18  and  C_9 
REMARK    4  A    between atoms: C_11  and  C_24 
REMARK       I    between atoms: N_12  and  C_11 
REMARK    5  A    between atoms: C_21  and  N_12 
REMARK    6  A    between atoms: C_13  and  C_25 
REMARK    7  A    between atoms: C_23  and  C_14 
REMARK    8  A    between atoms: C_22  and  N_18 
REMARK    9  A    between atoms: C_25  and  C_22 
REMARK   10  A    between atoms: C_24  and  C_23 
ROOT
ATOM      1  N   UNL d   1     -40.253  15.022  19.889  0.00  0.00    -0.226 N 
ATOM      2  C   UNL d   1     -40.775  14.409  20.069  0.00  0.00     0.342 A 
ATOM      3  N   UNL d   1     -40.717  14.018  20.798  0.00  0.00    -0.254 N 
ATOM      4  C   UNL d   1     -39.671  15.243  20.439  0.00  0.00     0.270 A 
ATOM      5  C   UNL d   1     -39.616  14.852  21.162  0.00  0.00     0.073 A 
ATOM      6  C   UNL d   1     -40.139  14.239  21.342  0.00  0.00     0.073 A 
ATOM      7  O   UNL d   1     -41.358  14.185  19.523  0.00  0.00    -0.245 OA
ATOM      8  O   UNL d   1     -39.148  15.855  20.259  0.00  0.00    -0.266 OA
ATOM      9  C   UNL d   1     -39.038  15.074  21.704  0.00  0.00     0.006 A 
ATOM     10  C   UNL d   1     -40.084  13.849  22.064  0.00  0.00     0.018 A 
ATOM     11  C   UNL d   1     -38.984  14.683  22.428  0.00  0.00     0.000 A 
ATOM     12  C   UNL d   1     -39.506  14.070  22.607  0.00  0.00     0.002 A 
ENDROOT
BRANCH   3  13
ATOM     13  C   UNL d   1     -41.240  13.405  20.978  0.00  0.00     0.147 C 
BRANCH  13  14
ATOM     14  C   UNL d   1     -42.016  13.586  21.195  0.00  0.00     0.297 C 
ATOM     15  O   UNL d   1     -42.250  14.369  21.300  0.00  0.00    -0.264 OA
ATOM     16  N   UNL d   1     -42.572  12.977  21.309  0.00  0.00    -0.205 NA
BRANCH  16  17
ATOM     17  C   UNL d   1     -43.352  13.150  21.527  0.00  0.00     0.102 C 
BRANCH  17  18
ATOM     18  C   UNL d   1     -43.883  12.537  21.679  0.00  0.00     0.021 C 
BRANCH  18  19
ATOM     19  C   UNL d   1     -44.611  12.695  22.032  0.00  0.00     0.002 A 
ATOM     20  C   UNL d   1     -45.016  13.392  21.856  0.00  0.00     0.000 A 
ATOM     21  C   UNL d   1     -45.740  13.549  22.208  0.00  0.00     0.000 A 
ATOM     22  C   UNL d   1     -46.065  13.006  22.740  0.00  0.00     0.000 A 
ATOM     23  C   UNL d   1     -45.660  12.309  22.915  0.00  0.00     0.000 A 
ATOM     24  C   UNL d   1     -44.932  12.150  22.562  0.00  0.00     0.000 A 
ENDBRANCH  18  19
ENDBRANCH  17  18
ENDBRANCH  16  17
ENDBRANCH  13  14
ENDBRANCH   3  13
BRANCH   1  25
ATOM     25  C   UNL d   1     -40.309  15.413  19.163  0.00  0.00     0.088 C 
BRANCH  25  26
ATOM     26  C   UNL d   1     -39.894  15.139  18.505  0.00  0.00     0.024 C 
BRANCH  26  27
ATOM     27  C   UNL d   1     -39.953  15.524  17.780  0.00  0.00     0.064 C 
BRANCH  27  28
ATOM     28  C   UNL d   1     -39.624  15.172  17.100  0.00  0.00     0.279 C 
ATOM     29  N   UNL d   1     -38.826  14.965  17.091  0.00  0.00    -0.208 NA
ATOM     30  O   UNL d   1     -40.089  15.029  16.435  0.00  0.00    -0.265 OA
BRANCH  29  31
ATOM     31  C   UNL d   1     -38.485  14.616  16.426  0.00  0.00     0.085 A 
ATOM     32  C   UNL d   1     -38.242  14.915  15.693  0.00  0.00     0.019 A 
ATOM     33  C   UNL d   1     -37.940  14.293  15.249  0.00  0.00     0.002 A 
ATOM     34  C   UNL d   1     -37.993  13.604  15.702  0.00  0.00     0.002 A 
ATOM     35  C   UNL d   1     -38.327  13.796  16.425  0.00  0.00     0.019 A 
ENDBRANCH  29  31
ENDBRANCH  27  28
ENDBRANCH  26  27
ENDBRANCH  25  26
ENDBRANCH   1  25
TORSDOF 10
ENDMDL
