MODEL 1
REMARK VINA RESULT:      -3.4      0.000      0.000
REMARK  4 active torsions:
REMARK  status: ('A' for Active; 'I' for Inactive)
REMARK    1  A    between atoms: C_5  and  N_1 
REMARK    2  A    between atoms: C_7  and  C_5 
REMARK    3  A    between atoms: O_10  and  C_9 
REMARK    4  A    between atoms: C_15  and  O_10 
ROOT
ATOM      1  N   UNL d   1      56.540  -0.416  31.861  0.00  0.00    -0.268 N 
ATOM      2  C   UNL d   1      56.629  -1.241  31.925  0.00  0.00     0.296 A 
ATOM      3  S   UNL d   1      56.209  -1.487  32.591  0.00  0.00    -0.025 SA
ATOM      4  C   UNL d   1      56.064  -0.161  32.489  0.00  0.00     0.073 A 
ATOM      5  C   UNL d   1      55.861  -0.826  32.938  0.00  0.00     0.050 A 
ATOM      6  O   UNL d   1      57.060  -1.723  31.415  0.00  0.00    -0.259 OA
ATOM      7  C   UNL d   1      55.795   0.583  32.703  0.00  0.00     0.018 A 
ATOM      8  C   UNL d   1      55.380  -0.732  33.613  0.00  0.00     0.008 A 
ATOM      9  C   UNL d   1      55.319   0.673  33.370  0.00  0.00     0.002 A 
ATOM     10  C   UNL d   1      55.113   0.021  33.821  0.00  0.00     0.001 A 
ENDROOT
BRANCH   1  11
ATOM     11  C   UNL d   1      56.866   0.062  31.277  0.00  0.00     0.086 C 
BRANCH  11  12
ATOM     12  C   UNL d   1      57.668   0.263  31.313  0.00  0.00     0.040 A 
ATOM     13  C   UNL d   1      58.054   0.484  30.624  0.00  0.00     0.102 A 
ATOM     14  C   UNL d   1      58.847   0.682  30.657  0.00  0.00     0.025 A 
ATOM     15  C   UNL d   1      59.259   0.660  31.380  0.00  0.00     0.002 A 
ATOM     16  C   UNL d   1      58.860   0.436  32.066  0.00  0.00     0.000 A 
ATOM     17  C   UNL d   1      58.058   0.236  32.030  0.00  0.00     0.004 A 
BRANCH  13  18
ATOM     18  O   UNL d   1      57.621   0.496  29.924  0.00  0.00    -0.305 OA
BRANCH  18  19
ATOM     19  C   UNL d   1      58.000   0.656  29.207  0.00  0.00     0.123 C 
ATOM     20  C   UNL d   1      57.564   0.646  28.502  0.00  0.00     0.029 C 
ENDBRANCH  18  19
ENDBRANCH  13  18
ENDBRANCH  11  12
ENDBRANCH   1  11
TORSDOF 4
ENDMDL
MODEL 2
REMARK VINA RESULT:      -3.0      1.625      2.341
REMARK  4 active torsions:
REMARK  status: ('A' for Active; 'I' for Inactive)
REMARK    1  A    between atoms: C_5  and  N_1 
REMARK    2  A    between atoms: C_7  and  C_5 
REMARK    3  A    between atoms: O_10  and  C_9 
REMARK    4  A    between atoms: C_15  and  O_10 
ROOT
ATOM      1  N   UNL d   1      57.922  -0.247  31.398  0.00  0.00    -0.268 N 
ATOM      2  C   UNL d   1      58.348   0.389  31.723  0.00  0.00     0.296 A 
ATOM      3  S   UNL d   1      57.913   0.682  32.360  0.00  0.00    -0.025 SA
ATOM      4  C   UNL d   1      57.228  -0.341  31.838  0.00  0.00     0.073 A 
ATOM      5  C   UNL d   1      57.225   0.236  32.433  0.00  0.00     0.050 A 
ATOM      6  O   UNL d   1      59.073   0.675  31.456  0.00  0.00    -0.259 OA
ATOM      7  C   UNL d   1      56.606  -0.872  31.772  0.00  0.00     0.018 A 
ATOM      8  C   UNL d   1      56.584   0.271  32.964  0.00  0.00     0.008 A 
ATOM      9  C   UNL d   1      55.974  -0.834  32.300  0.00  0.00     0.002 A 
ATOM     10  C   UNL d   1      55.963  -0.267  32.891  0.00  0.00     0.001 A 
ENDROOT
BRANCH   1  11
ATOM     11  C   UNL d   1      58.150  -0.704  30.753  0.00  0.00     0.086 C 
BRANCH  11  12
ATOM     12  C   UNL d   1      58.144  -0.372  29.995  0.00  0.00     0.040 A 
ATOM     13  C   UNL d   1      58.503  -0.779  29.380  0.00  0.00     0.102 A 
ATOM     14  C   UNL d   1      58.498  -0.453  28.630  0.00  0.00     0.025 A 
ATOM     15  C   UNL d   1      58.133   0.283  28.489  0.00  0.00     0.002 A 
ATOM     16  C   UNL d   1      57.776   0.682  29.116  0.00  0.00     0.000 A 
ATOM     17  C   UNL d   1      57.782   0.350  29.874  0.00  0.00     0.004 A 
BRANCH  13  18
ATOM     18  O   UNL d   1      58.855  -1.503  29.548  0.00  0.00    -0.305 OA
BRANCH  18  19
ATOM     19  C   UNL d   1      58.969  -2.057  28.945  0.00  0.00     0.123 C 
ATOM     20  C   UNL d   1      59.106  -2.851  29.138  0.00  0.00     0.029 C 
ENDBRANCH  18  19
ENDBRANCH  13  18
ENDBRANCH  11  12
ENDBRANCH   1  11
TORSDOF 4
ENDMDL
MODEL 3
REMARK VINA RESULT:      -2.9      2.720      3.504
REMARK  4 active torsions:
REMARK  status: ('A' for Active; 'I' for Inactive)
REMARK    1  A    between atoms: C_5  and  N_1 
REMARK    2  A    between atoms: C_7  and  C_5 
REMARK    3  A    between atoms: O_10  and  C_9 
REMARK    4  A    between atoms: C_15  and  O_10 
ROOT
ATOM      1  N   UNL d   1      58.248  -0.621  29.618  0.00  0.00    -0.268 N 
ATOM      2  C   UNL d   1      58.374   0.140  29.306  0.00  0.00     0.296 A 
ATOM      3  S   UNL d   1      58.024   0.682  29.820  0.00  0.00    -0.025 SA
ATOM      4  C   UNL d   1      57.821  -0.541  30.322  0.00  0.00     0.073 A 
ATOM      5  C   UNL d   1      57.685   0.267  30.444  0.00  0.00     0.050 A 
ATOM      6  O   UNL d   1      58.776   0.319  28.609  0.00  0.00    -0.259 OA
ATOM      7  C   UNL d   1      57.545  -1.095  30.859  0.00  0.00     0.018 A 
ATOM      8  C   UNL d   1      57.262   0.511  31.120  0.00  0.00     0.008 A 
ATOM      9  C   UNL d   1      57.127  -0.849  31.526  0.00  0.00     0.002 A 
ATOM     10  C   UNL d   1      56.987  -0.053  31.656  0.00  0.00     0.001 A 
ENDROOT
BRANCH   1  11
ATOM     11  C   UNL d   1      58.503  -1.329  29.285  0.00  0.00     0.086 C 
BRANCH  11  12
ATOM     12  C   UNL d   1      59.304  -1.534  29.322  0.00  0.00     0.040 A 
ATOM     13  C   UNL d   1      59.529  -2.297  29.124  0.00  0.00     0.102 A 
ATOM     14  C   UNL d   1      60.320  -2.501  29.160  0.00  0.00     0.025 A 
ATOM     15  C   UNL d   1      60.892  -1.943  29.394  0.00  0.00     0.002 A 
ATOM     16  C   UNL d   1      60.653  -1.179  29.591  0.00  0.00     0.000 A 
ATOM     17  C   UNL d   1      59.852  -0.974  29.554  0.00  0.00     0.004 A 
BRANCH  13  18
ATOM     18  O   UNL d   1      58.943  -2.827  28.897  0.00  0.00    -0.305 OA
BRANCH  18  19
ATOM     19  C   UNL d   1      59.146  -3.593  28.661  0.00  0.00     0.123 C 
ATOM     20  C   UNL d   1      58.550  -4.131  28.455  0.00  0.00     0.029 C 
ENDBRANCH  18  19
ENDBRANCH  13  18
ENDBRANCH  11  12
ENDBRANCH   1  11
TORSDOF 4
ENDMDL
MODEL 4
REMARK VINA RESULT:      -2.8      1.427      3.791
REMARK  4 active torsions:
REMARK  status: ('A' for Active; 'I' for Inactive)
REMARK    1  A    between atoms: C_5  and  N_1 
REMARK    2  A    between atoms: C_7  and  C_5 
REMARK    3  A    between atoms: O_10  and  C_9 
REMARK    4  A    between atoms: C_15  and  O_10 
ROOT
ATOM      1  N   UNL d   1      57.368   0.602  31.797  0.00  0.00    -0.268 N 
ATOM      2  C   UNL d   1      58.064   0.655  32.249  0.00  0.00     0.296 A 
ATOM      3  S   UNL d   1      58.701   0.682  31.725  0.00  0.00    -0.025 SA
ATOM      4  C   UNL d   1      57.583   0.596  30.997  0.00  0.00     0.073 A 
ATOM      5  C   UNL d   1      58.408   0.646  30.957  0.00  0.00     0.050 A 
ATOM      6  O   UNL d   1      58.108   0.676  33.072  0.00  0.00    -0.259 OA
ATOM      7  C   UNL d   1      57.135   0.553  30.312  0.00  0.00     0.018 A 
ATOM      8  C   UNL d   1      58.781   0.651  30.211  0.00  0.00     0.008 A 
ATOM      9  C   UNL d   1      57.507   0.559  29.576  0.00  0.00     0.002 A 
ATOM     10  C   UNL d   1      58.323   0.607  29.526  0.00  0.00     0.001 A 
ENDROOT
BRANCH   1  11
ATOM     11  C   UNL d   1      56.601   0.561  32.091  0.00  0.00     0.086 C 
BRANCH  11  12
ATOM     12  C   UNL d   1      56.315  -0.155  32.391  0.00  0.00     0.040 A 
ATOM     13  C   UNL d   1      55.774  -0.140  33.008  0.00  0.00     0.102 A 
ATOM     14  C   UNL d   1      55.490  -0.846  33.306  0.00  0.00     0.025 A 
ATOM     15  C   UNL d   1      55.746  -1.573  32.990  0.00  0.00     0.002 A 
ATOM     16  C   UNL d   1      56.291  -1.575  32.371  0.00  0.00     0.000 A 
ATOM     17  C   UNL d   1      56.576  -0.859  32.070  0.00  0.00     0.004 A 
BRANCH  13  18
ATOM     18  O   UNL d   1      55.539   0.592  33.299  0.00  0.00    -0.305 OA
BRANCH  18  19
ATOM     19  C   UNL d   1      54.824   0.665  33.708  0.00  0.00     0.123 C 
ATOM     20  C   UNL d   1      54.825   0.681  34.537  0.00  0.00     0.029 C 
ENDBRANCH  18  19
ENDBRANCH  13  18
ENDBRANCH  11  12
ENDBRANCH   1  11
TORSDOF 4
ENDMDL
MODEL 5
REMARK VINA RESULT:      -2.7      3.166      4.673
REMARK  4 active torsions:
REMARK  status: ('A' for Active; 'I' for Inactive)
REMARK    1  A    between atoms: C_5  and  N_1 
REMARK    2  A    between atoms: C_7  and  C_5 
REMARK    3  A    between atoms: O_10  and  C_9 
REMARK    4  A    between atoms: C_15  and  O_10 
ROOT
ATOM      1  N   UNL d   1      59.718  -1.781  29.558  0.00  0.00    -0.268 N 
ATOM      2  C   UNL d   1      60.525  -1.619  29.442  0.00  0.00     0.296 A 
ATOM      3  S   UNL d   1      60.852  -2.255  29.030  0.00  0.00    -0.025 SA
ATOM      4  C   UNL d   1      59.554  -2.516  29.216  0.00  0.00     0.073 A 
ATOM      5  C   UNL d   1      60.257  -2.807  28.890  0.00  0.00     0.050 A 
ATOM      6  O   UNL d   1      60.926  -0.944  29.694  0.00  0.00    -0.259 OA
ATOM      7  C   UNL d   1      58.860  -2.951  29.161  0.00  0.00     0.018 A 
ATOM      8  C   UNL d   1      60.255  -3.546  28.506  0.00  0.00     0.008 A 
ATOM      9  C   UNL d   1      58.861  -3.682  28.780  0.00  0.00     0.002 A 
ATOM     10  C   UNL d   1      59.553  -3.977  28.455  0.00  0.00     0.001 A 
ENDROOT
BRANCH   1  11
ATOM     11  C   UNL d   1      59.177  -1.296  29.944  0.00  0.00     0.086 C 
BRANCH  11  12
ATOM     12  C   UNL d   1      58.871  -0.634  29.555  0.00  0.00     0.040 A 
ATOM     13  C   UNL d   1      58.243  -0.228  29.893  0.00  0.00     0.102 A 
ATOM     14  C   UNL d   1      57.939   0.427  29.510  0.00  0.00     0.025 A 
ATOM     15  C   UNL d   1      58.260   0.682  28.785  0.00  0.00     0.002 A 
ATOM     16  C   UNL d   1      58.891   0.265  28.455  0.00  0.00     0.000 A 
ATOM     17  C   UNL d   1      59.197  -0.397  28.845  0.00  0.00     0.004 A 
BRANCH  13  18
ATOM     18  O   UNL d   1      57.946  -0.502  30.610  0.00  0.00    -0.305 OA
BRANCH  18  19
ATOM     19  C   UNL d   1      57.458  -0.017  31.068  0.00  0.00     0.123 C 
ATOM     20  C   UNL d   1      56.999  -0.350  31.672  0.00  0.00     0.029 C 
ENDBRANCH  18  19
ENDBRANCH  13  18
ENDBRANCH  11  12
ENDBRANCH   1  11
TORSDOF 4
ENDMDL
MODEL 6
REMARK VINA RESULT:      -2.2      0.847      1.632
REMARK  4 active torsions:
REMARK  status: ('A' for Active; 'I' for Inactive)
REMARK    1  A    between atoms: C_5  and  N_1 
REMARK    2  A    between atoms: C_7  and  C_5 
REMARK    3  A    between atoms: O_10  and  C_9 
REMARK    4  A    between atoms: C_15  and  O_10 
ROOT
ATOM      1  N   UNL d   1      57.213  -0.330  32.085  0.00  0.00    -0.268 N 
ATOM      2  C   UNL d   1      56.886  -1.029  31.775  0.00  0.00     0.296 A 
ATOM      3  S   UNL d   1      56.207  -1.202  32.210  0.00  0.00    -0.025 SA
ATOM      4  C   UNL d   1      56.733  -0.078  32.710  0.00  0.00     0.073 A 
ATOM      5  C   UNL d   1      56.111  -0.620  32.784  0.00  0.00     0.050 A 
ATOM      6  O   UNL d   1      57.186  -1.469  31.146  0.00  0.00    -0.259 OA
ATOM      7  C   UNL d   1      56.784   0.568  33.212  0.00  0.00     0.018 A 
ATOM      8  C   UNL d   1      55.536  -0.502  33.377  0.00  0.00     0.008 A 
ATOM      9  C   UNL d   1      56.213   0.681  33.796  0.00  0.00     0.002 A 
ATOM     10  C   UNL d   1      55.594   0.150  33.878  0.00  0.00     0.001 A 
ENDROOT
BRANCH   1  11
ATOM     11  C   UNL d   1      57.895   0.045  31.818  0.00  0.00     0.086 C 
BRANCH  11  12
ATOM     12  C   UNL d   1      57.960   0.257  31.021  0.00  0.00     0.040 A 
ATOM     13  C   UNL d   1      58.694   0.472  30.725  0.00  0.00     0.102 A 
ATOM     14  C   UNL d   1      58.761   0.682  29.938  0.00  0.00     0.025 A 
ATOM     15  C   UNL d   1      58.093   0.677  29.440  0.00  0.00     0.002 A 
ATOM     16  C   UNL d   1      57.361   0.459  29.749  0.00  0.00     0.000 A 
ATOM     17  C   UNL d   1      57.296   0.247  30.546  0.00  0.00     0.004 A 
BRANCH  13  18
ATOM     18  O   UNL d   1      59.336   0.467  31.240  0.00  0.00    -0.305 OA
BRANCH  18  19
ATOM     19  C   UNL d   1      60.103   0.565  30.947  0.00  0.00     0.123 C 
ATOM     20  C   UNL d   1      60.736   0.651  31.474  0.00  0.00     0.029 C 
ENDBRANCH  18  19
ENDBRANCH  13  18
ENDBRANCH  11  12
ENDBRANCH   1  11
TORSDOF 4
ENDMDL
MODEL 7
REMARK VINA RESULT:      -1.8      1.921      3.928
REMARK  4 active torsions:
REMARK  status: ('A' for Active; 'I' for Inactive)
REMARK    1  A    between atoms: C_5  and  N_1 
REMARK    2  A    between atoms: C_7  and  C_5 
REMARK    3  A    between atoms: O_10  and  C_9 
REMARK    4  A    between atoms: C_15  and  O_10 
ROOT
ATOM      1  N   UNL d   1      58.035  -0.606  29.953  0.00  0.00    -0.268 N 
ATOM      2  C   UNL d   1      57.934   0.042  29.440  0.00  0.00     0.296 A 
ATOM      3  S   UNL d   1      58.443  -0.065  28.800  0.00  0.00    -0.025 SA
ATOM      4  C   UNL d   1      58.606  -1.106  29.623  0.00  0.00     0.073 A 
ATOM      5  C   UNL d   1      58.856  -0.768  28.910  0.00  0.00     0.050 A 
ATOM      6  O   UNL d   1      57.418   0.674  29.553  0.00  0.00    -0.259 OA
ATOM      7  C   UNL d   1      58.924  -1.817  29.881  0.00  0.00     0.018 A 
ATOM      8  C   UNL d   1      59.436  -1.158  28.455  0.00  0.00     0.008 A 
ATOM      9  C   UNL d   1      59.497  -2.199  29.428  0.00  0.00     0.002 A 
ATOM     10  C   UNL d   1      59.751  -1.873  28.721  0.00  0.00     0.001 A 
ENDROOT
BRANCH   1  11
ATOM     11  C   UNL d   1      57.637  -0.728  30.663  0.00  0.00     0.086 C 
BRANCH  11  12
ATOM     12  C   UNL d   1      57.819  -0.258  31.319  0.00  0.00     0.040 A 
ATOM     13  C   UNL d   1      57.302  -0.249  31.956  0.00  0.00     0.102 A 
ATOM     14  C   UNL d   1      57.480   0.215  32.606  0.00  0.00     0.025 A 
ATOM     15  C   UNL d   1      58.175   0.673  32.623  0.00  0.00     0.002 A 
ATOM     16  C   UNL d   1      58.686   0.655  31.976  0.00  0.00     0.000 A 
ATOM     17  C   UNL d   1      58.505   0.185  31.320  0.00  0.00     0.004 A 
BRANCH  13  18
ATOM     18  O   UNL d   1      56.624  -0.711  31.912  0.00  0.00    -0.305 OA
BRANCH  18  19
ATOM     19  C   UNL d   1      56.308  -1.050  32.597  0.00  0.00     0.123 C 
ATOM     20  C   UNL d   1      55.594  -1.469  32.555  0.00  0.00     0.029 C 
ENDBRANCH  18  19
ENDBRANCH  13  18
ENDBRANCH  11  12
ENDBRANCH   1  11
TORSDOF 4
ENDMDL
