MODEL 1
REMARK VINA RESULT:      21.5      0.000      0.000
REMARK  2 active torsions:
REMARK  status: ('A' for Active; 'I' for Inactive)
REMARK    1  A    between atoms: C_10  and  N_1 
REMARK    2  A    between atoms: C_6  and  C_7 
ROOT
ATOM      1  N   UNL d   1      58.510  49.672  49.793  0.00  0.00    -0.288 N 
ATOM      2  C   UNL d   1      58.990  49.688  49.117  0.00  0.00     0.183 A 
ATOM      3  N   UNL d   1      59.786  49.684  49.364  0.00  0.00    -0.224 NA
ATOM      4  C   UNL d   1      59.006  49.659  50.456  0.00  0.00     0.083 A 
ATOM      5  C   UNL d   1      59.788  49.666  50.193  0.00  0.00     0.099 A 
ATOM      6  C   UNL d   1      60.244  49.637  51.547  0.00  0.00     0.066 A 
ATOM      7  C   UNL d   1      60.407  49.655  50.741  0.00  0.00     0.027 A 
ATOM      8  C   UNL d   1      58.843  49.641  51.267  0.00  0.00     0.019 A 
ATOM      9  C   UNL d   1      59.462  49.630  51.810  0.00  0.00     0.008 A 
ENDROOT
BRANCH   1  10
ATOM     10  C   UNL d   1      57.692  49.671  49.804  0.00  0.00     0.066 A 
ATOM     11  C   UNL d   1      57.268  49.707  49.095  0.00  0.00     0.018 A 
ATOM     12  C   UNL d   1      56.452  49.706  49.101  0.00  0.00     0.002 A 
ATOM     13  C   UNL d   1      56.035  49.668  49.820  0.00  0.00     0.000 A 
ATOM     14  C   UNL d   1      56.458  49.631  50.525  0.00  0.00     0.002 A 
ATOM     15  C   UNL d   1      57.287  49.633  50.520  0.00  0.00     0.018 A 
ENDBRANCH   1  10
BRANCH   6  16
ATOM     16  C   UNL d   1      60.862  49.626  52.092  0.00  0.00     0.211 C 
ATOM     17  O   UNL d   1      60.701  49.676  52.899  0.00  0.00    -0.644 OA
ATOM     18  O   UNL d   1      61.648  49.565  51.831  0.00  0.00    -0.644 OA
ENDBRANCH   6  16
TORSDOF 2
ENDMDL
