MODEL 1
REMARK VINA RESULT:      24.9      0.000      0.000
REMARK  4 active torsions:
REMARK  status: ('A' for Active; 'I' for Inactive)
REMARK    1  A    between atoms: C_6  and  C_1 
REMARK    2  A    between atoms: C_16  and  C_6 
REMARK    3  A    between atoms: C_9  and  O_12 
REMARK    4  A    between atoms: O_12  and  C_10 
ROOT
ATOM      1  C   UNL d   1      14.082  12.578  -1.998  0.00  0.00     0.139 A 
ATOM      2  C   UNL d   1      14.593  13.148  -0.903  0.00  0.00     0.064 A 
ATOM      3  C   UNL d   1      14.236  12.459  -1.194  0.00  0.00     0.220 A 
ATOM      4  C   UNL d   1      14.658  13.688  -1.521  0.00  0.00     0.105 A 
ATOM      5  O   UNL d   1      14.343  13.340  -2.202  0.00  0.00    -0.304 OA
ATOM      6  C   UNL d   1      14.996  14.428  -1.386  0.00  0.00     0.050 A 
ATOM      7  C   UNL d   1      14.866  13.348  -0.151  0.00  0.00     0.007 A 
ATOM      8  C   UNL d   1      15.265  14.620  -0.636  0.00  0.00     0.105 A 
ATOM      9  O   UNL d   1      14.068  11.779  -0.758  0.00  0.00    -0.284 OA
ATOM     10  C   UNL d   1      15.206  14.091  -0.014  0.00  0.00     0.025 A 
ENDROOT
BRANCH   1  11
ATOM     11  C   UNL d   1      13.730  12.036  -2.508  0.00  0.00     0.028 C 
BRANCH  11  12
ATOM     12  C   UNL d   1      13.452  12.275  -3.254  0.00  0.00     0.005 A 
ATOM     13  C   UNL d   1      13.101  13.012  -3.329  0.00  0.00     0.021 A 
ATOM     14  C   UNL d   1      12.822  13.259  -4.064  0.00  0.00     0.099 A 
ATOM     15  N   UNL d   1      12.898  12.763  -4.722  0.00  0.00    -0.242 NA
ATOM     16  C   UNL d   1      13.253  12.023  -4.640  0.00  0.00     0.099 A 
ATOM     17  C   UNL d   1      13.530  11.779  -3.906  0.00  0.00     0.021 A 
ENDBRANCH  11  12
ENDBRANCH   1  11
BRANCH   8  18
ATOM     18  O   UNL d   1      15.604  15.363  -0.504  0.00  0.00    -0.273 OA
BRANCH  18  19
ATOM     19  C   UNL d   1      15.165  16.055  -0.647  0.00  0.00     0.300 C 
ATOM     20  O   UNL d   1      14.550  16.258  -0.138  0.00  0.00    -0.259 OA
ATOM     21  C   UNL d   1      15.348  16.531  -1.296  0.00  0.00     0.074 C 
ENDBRANCH  18  19
ENDBRANCH   8  18
TORSDOF 4
ENDMDL
MODEL 2
REMARK VINA RESULT:      26.6      2.169      3.384
REMARK  4 active torsions:
REMARK  status: ('A' for Active; 'I' for Inactive)
REMARK    1  A    between atoms: C_6  and  C_1 
REMARK    2  A    between atoms: C_16  and  C_6 
REMARK    3  A    between atoms: C_9  and  O_12 
REMARK    4  A    between atoms: O_12  and  C_10 
ROOT
ATOM      1  C   UNL d   1      13.656  12.420  -2.812  0.00  0.00     0.139 A 
ATOM      2  C   UNL d   1      13.243  13.178  -3.831  0.00  0.00     0.064 A 
ATOM      3  C   UNL d   1      13.201  12.418  -3.502  0.00  0.00     0.220 A 
ATOM      4  C   UNL d   1      13.719  13.645  -3.349  0.00  0.00     0.105 A 
ATOM      5  O   UNL d   1      13.978  13.180  -2.715  0.00  0.00    -0.304 OA
ATOM      6  C   UNL d   1      13.856  14.433  -3.547  0.00  0.00     0.050 A 
ATOM      7  C   UNL d   1      12.904  13.499  -4.512  0.00  0.00     0.007 A 
ATOM      8  C   UNL d   1      13.517  14.747  -4.224  0.00  0.00     0.105 A 
ATOM      9  O   UNL d   1      12.781  11.779  -3.810  0.00  0.00    -0.284 OA
ATOM     10  C   UNL d   1      13.042  14.292  -4.711  0.00  0.00     0.025 A 
ENDROOT
BRANCH   1  11
ATOM     11  C   UNL d   1      13.771  11.781  -2.307  0.00  0.00     0.028 C 
BRANCH  11  12
ATOM     12  C   UNL d   1      14.082  11.894  -1.544  0.00  0.00     0.005 A 
ATOM     13  C   UNL d   1      13.583  11.815  -0.898  0.00  0.00     0.021 A 
ATOM     14  C   UNL d   1      13.881  11.925  -0.136  0.00  0.00     0.099 A 
ATOM     15  N   UNL d   1      14.679  12.114  -0.029  0.00  0.00    -0.242 NA
ATOM     16  C   UNL d   1      15.176  12.191  -0.684  0.00  0.00     0.099 A 
ATOM     17  C   UNL d   1      14.876  12.081  -1.441  0.00  0.00     0.021 A 
ENDBRANCH  11  12
ENDBRANCH   1  11
BRANCH   8  18
ATOM     18  O   UNL d   1      13.657  15.538  -4.420  0.00  0.00    -0.273 OA
BRANCH  18  19
ATOM     19  C   UNL d   1      14.316  15.937  -4.106  0.00  0.00     0.300 C 
ATOM     20  O   UNL d   1      14.375  16.046  -3.292  0.00  0.00    -0.259 OA
ATOM     21  C   UNL d   1      14.904  16.220  -4.611  0.00  0.00     0.074 C 
ENDBRANCH  18  19
ENDBRANCH   8  18
TORSDOF 4
ENDMDL
