MODEL 1
REMARK VINA RESULT:      -5.0      0.000      0.000
REMARK  8 active torsions:
REMARK  status: ('A' for Active; 'I' for Inactive)
REMARK    1  A    between atoms: N_9  and  C_1 
REMARK    2  A    between atoms: C_12  and  C_2 
REMARK    3  A    between atoms: C_28  and  N_6 
REMARK    4  A    between atoms: C_10  and  C_12 
REMARK    5  A    between atoms: C_16  and  C_14 
REMARK    6  A    between atoms: C_20  and  C_16 
REMARK    7  A    between atoms: O_31  and  C_20 
REMARK    8  A    between atoms: C_34  and  C_28 
ROOT
ATOM      1  C   UNL d   1      53.129  33.188  53.423  0.00  0.00     0.154 A 
ATOM      2  C   UNL d   1      52.682  32.521  53.645  0.00  0.00     0.092 A 
ATOM      3  N   UNL d   1      52.777  33.779  52.945  0.00  0.00    -0.210 NA
ATOM      4  N   UNL d   1      51.550  33.036  52.917  0.00  0.00    -0.258 N 
ATOM      5  C   UNL d   1      51.990  33.707  52.690  0.00  0.00     0.152 A 
ATOM      6  C   UNL d   1      51.885  32.440  53.392  0.00  0.00     0.269 A 
ATOM      7  C   UNL d   1      51.647  34.285  52.223  0.00  0.00     0.035 A 
ATOM      8  C   UNL d   1      50.763  32.963  52.663  0.00  0.00     0.084 A 
ATOM      9  O   UNL d   1      51.443  31.779  53.612  0.00  0.00    -0.266 OA
ATOM     10  C   UNL d   1      50.431  33.546  52.197  0.00  0.00     0.019 A 
ATOM     11  C   UNL d   1      50.873  34.207  51.977  0.00  0.00     0.005 A 
ATOM     12  C   UNL d   1      52.090  34.945  52.003  0.00  0.00     0.003 C 
ENDROOT
BRANCH   1  13
ATOM     13  N   UNL d   1      53.913  33.267  53.672  0.00  0.00    -0.284 N 
ATOM     14  C   UNL d   1      54.079  33.692  54.359  0.00  0.00     0.129 A 
ATOM     15  C   UNL d   1      54.861  33.769  54.604  0.00  0.00     0.296 A 
ATOM     16  O   UNL d   1      55.035  34.193  55.290  0.00  0.00    -0.264 OA
ATOM     17  N   UNL d   1      55.474  33.426  54.169  0.00  0.00    -0.204 NA
ATOM     18  C   UNL d   1      55.300  33.002  53.483  0.00  0.00     0.121 A 
ATOM     19  C   UNL d   1      54.515  32.921  53.231  0.00  0.00     0.102 A 
BRANCH  14  20
ATOM     20  C   UNL d   1      53.473  34.032  54.789  0.00  0.00     0.091 C 
BRANCH  20  21
ATOM     21  C   UNL d   1      53.608  34.718  55.226  0.00  0.00     0.298 C 
ATOM     22  O   UNL d   1      53.837  34.663  56.022  0.00  0.00    -0.259 OA
BRANCH  21  23
ATOM     23  O   UNL d   1      53.520  35.462  54.886  0.00  0.00    -0.296 OA
ATOM     24  C   UNL d   1      53.013  36.019  55.224  0.00  0.00     0.185 C 
ENDBRANCH  21  23
ENDBRANCH  20  21
ENDBRANCH  14  20
ENDBRANCH   1  13
BRANCH   2  25
ATOM     25  C   UNL d   1      53.021  31.935  54.115  0.00  0.00     0.019 C 
BRANCH  25  26
ATOM     26  C   UNL d   1      53.022  31.150  53.862  0.00  0.00     0.088 A 
ATOM     27  C   UNL d   1      53.091  30.490  54.349  0.00  0.00     0.272 A 
ATOM     28  N   UNL d   1      53.065  29.819  53.862  0.00  0.00    -0.259 N 
ATOM     29  O   UNL d   1      53.172  30.490  55.173  0.00  0.00    -0.266 OA
ATOM     30  C   UNL d   1      52.980  30.071  53.081  0.00  0.00     0.153 A 
ATOM     31  S   UNL d   1      52.953  30.897  53.087  0.00  0.00    -0.053 SA
ATOM     32  S   UNL d   1      52.931  29.587  52.425  0.00  0.00    -0.052 SA
BRANCH  28  33
ATOM     33  C   UNL d   1      53.116  29.032  54.118  0.00  0.00     0.084 C 
BRANCH  33  34
ATOM     34  C   UNL d   1      53.612  28.842  54.757  0.00  0.00     0.019 C 
ATOM     35  C   UNL d   1      53.614  28.067  55.053  0.00  0.00     0.002 C 
ENDBRANCH  33  34
ENDBRANCH  28  33
ENDBRANCH  25  26
ENDBRANCH   2  25
TORSDOF 8
ENDMDL
MODEL 2
REMARK VINA RESULT:      -4.5      1.831      4.019
REMARK  8 active torsions:
REMARK  status: ('A' for Active; 'I' for Inactive)
REMARK    1  A    between atoms: N_9  and  C_1 
REMARK    2  A    between atoms: C_12  and  C_2 
REMARK    3  A    between atoms: C_28  and  N_6 
REMARK    4  A    between atoms: C_10  and  C_12 
REMARK    5  A    between atoms: C_16  and  C_14 
REMARK    6  A    between atoms: C_20  and  C_16 
REMARK    7  A    between atoms: O_31  and  C_20 
REMARK    8  A    between atoms: C_34  and  C_28 
ROOT
ATOM      1  C   UNL d   1      52.558  33.554  53.289  0.00  0.00     0.154 A 
ATOM      2  C   UNL d   1      51.738  33.416  53.339  0.00  0.00     0.092 A 
ATOM      3  N   UNL d   1      53.079  32.906  53.188  0.00  0.00    -0.210 NA
ATOM      4  N   UNL d   1      51.966  32.001  53.187  0.00  0.00    -0.258 N 
ATOM      5  C   UNL d   1      52.788  32.130  53.137  0.00  0.00     0.152 A 
ATOM      6  C   UNL d   1      51.434  32.634  53.288  0.00  0.00     0.269 A 
ATOM      7  C   UNL d   1      53.298  31.498  53.038  0.00  0.00     0.035 A 
ATOM      8  C   UNL d   1      51.674  31.225  53.136  0.00  0.00     0.084 A 
ATOM      9  O   UNL d   1      50.622  32.498  53.337  0.00  0.00    -0.266 OA
ATOM     10  C   UNL d   1      52.192  30.602  53.038  0.00  0.00     0.019 A 
ATOM     11  C   UNL d   1      53.004  30.738  52.989  0.00  0.00     0.005 A 
ATOM     12  C   UNL d   1      54.110  31.634  52.989  0.00  0.00     0.003 C 
ENDROOT
BRANCH   1  13
ATOM     13  N   UNL d   1      52.856  34.322  53.339  0.00  0.00    -0.284 N 
ATOM     14  C   UNL d   1      53.133  34.603  54.064  0.00  0.00     0.129 A 
ATOM     15  C   UNL d   1      53.429  35.370  54.109  0.00  0.00     0.296 A 
ATOM     16  O   UNL d   1      53.708  35.658  54.830  0.00  0.00    -0.264 OA
ATOM     17  N   UNL d   1      53.449  35.855  53.441  0.00  0.00    -0.204 NA
ATOM     18  C   UNL d   1      53.170  35.567  52.720  0.00  0.00     0.121 A 
ATOM     19  C   UNL d   1      52.871  34.796  52.666  0.00  0.00     0.102 A 
BRANCH  14  20
ATOM     20  C   UNL d   1      53.113  34.125  54.725  0.00  0.00     0.091 C 
BRANCH  20  21
ATOM     21  C   UNL d   1      53.646  34.247  55.343  0.00  0.00     0.298 C 
ATOM     22  O   UNL d   1      53.424  34.710  55.995  0.00  0.00    -0.259 OA
BRANCH  21  23
ATOM     23  O   UNL d   1      54.399  33.917  55.324  0.00  0.00    -0.296 OA
ATOM     24  C   UNL d   1      54.696  33.517  55.981  0.00  0.00     0.185 C 
ENDBRANCH  21  23
ENDBRANCH  20  21
ENDBRANCH  14  20
ENDBRANCH   1  13
BRANCH   2  25
ATOM     25  C   UNL d   1      51.219  34.048  53.438  0.00  0.00     0.019 C 
BRANCH  25  26
ATOM     26  C   UNL d   1      50.617  34.179  52.888  0.00  0.00     0.088 A 
ATOM     27  C   UNL d   1      49.889  34.529  53.050  0.00  0.00     0.272 A 
ATOM     28  N   UNL d   1      49.461  34.549  52.340  0.00  0.00    -0.259 N 
ATOM     29  O   UNL d   1      49.629  34.810  53.783  0.00  0.00    -0.266 OA
ATOM     30  C   UNL d   1      49.928  34.212  51.749  0.00  0.00     0.153 A 
ATOM     31  S   UNL d   1      50.643  33.985  52.094  0.00  0.00    -0.053 SA
ATOM     32  S   UNL d   1      49.716  34.122  50.965  0.00  0.00    -0.052 SA
BRANCH  28  33
ATOM     33  C   UNL d   1      48.697  34.855  52.243  0.00  0.00     0.084 C 
BRANCH  33  34
ATOM     34  C   UNL d   1      48.565  35.667  52.356  0.00  0.00     0.019 C 
ATOM     35  C   UNL d   1      47.801  35.973  52.253  0.00  0.00     0.002 C 
ENDBRANCH  33  34
ENDBRANCH  28  33
ENDBRANCH  25  26
ENDBRANCH   2  25
TORSDOF 8
ENDMDL
MODEL 3
REMARK VINA RESULT:      -3.2      1.550      3.935
REMARK  8 active torsions:
REMARK  status: ('A' for Active; 'I' for Inactive)
REMARK    1  A    between atoms: N_9  and  C_1 
REMARK    2  A    between atoms: C_12  and  C_2 
REMARK    3  A    between atoms: C_28  and  N_6 
REMARK    4  A    between atoms: C_10  and  C_12 
REMARK    5  A    between atoms: C_16  and  C_14 
REMARK    6  A    between atoms: C_20  and  C_16 
REMARK    7  A    between atoms: O_31  and  C_20 
REMARK    8  A    between atoms: C_34  and  C_28 
ROOT
ATOM      1  C   UNL d   1      53.068  32.660  54.065  0.00  0.00     0.154 A 
ATOM      2  C   UNL d   1      52.695  32.744  53.326  0.00  0.00     0.092 A 
ATOM      3  N   UNL d   1      53.244  31.893  54.353  0.00  0.00    -0.210 NA
ATOM      4  N   UNL d   1      52.678  31.312  53.171  0.00  0.00    -0.258 N 
ATOM      5  C   UNL d   1      53.051  31.218  53.910  0.00  0.00     0.152 A 
ATOM      6  C   UNL d   1      52.496  32.067  52.870  0.00  0.00     0.269 A 
ATOM      7  C   UNL d   1      53.223  30.470  54.192  0.00  0.00     0.035 A 
ATOM      8  C   UNL d   1      52.484  30.637  52.726  0.00  0.00     0.084 A 
ATOM      9  O   UNL d   1      52.126  32.150  52.137  0.00  0.00    -0.266 OA
ATOM     10  C   UNL d   1      52.661  29.895  53.018  0.00  0.00     0.019 A 
ATOM     11  C   UNL d   1      53.030  29.811  53.750  0.00  0.00     0.005 A 
ATOM     12  C   UNL d   1      53.593  30.386  54.925  0.00  0.00     0.003 C 
ENDROOT
BRANCH   1  13
ATOM     13  N   UNL d   1      53.263  33.326  54.512  0.00  0.00    -0.284 N 
ATOM     14  C   UNL d   1      54.055  33.543  54.592  0.00  0.00     0.129 A 
ATOM     15  C   UNL d   1      54.246  34.209  55.038  0.00  0.00     0.296 A 
ATOM     16  O   UNL d   1      55.036  34.432  55.122  0.00  0.00    -0.264 OA
ATOM     17  N   UNL d   1      53.655  34.655  55.403  0.00  0.00    -0.204 NA
ATOM     18  C   UNL d   1      52.865  34.431  55.319  0.00  0.00     0.121 A 
ATOM     19  C   UNL d   1      52.666  33.764  54.872  0.00  0.00     0.102 A 
BRANCH  14  20
ATOM     20  C   UNL d   1      54.641  33.102  54.231  0.00  0.00     0.091 C 
BRANCH  20  21
ATOM     21  C   UNL d   1      55.319  33.471  53.940  0.00  0.00     0.298 C 
ATOM     22  O   UNL d   1      55.939  33.664  54.457  0.00  0.00    -0.259 OA
BRANCH  21  23
ATOM     23  O   UNL d   1      55.393  33.652  53.141  0.00  0.00    -0.296 OA
ATOM     24  C   UNL d   1      55.937  33.249  52.670  0.00  0.00     0.185 C 
ENDBRANCH  21  23
ENDBRANCH  20  21
ENDBRANCH  14  20
ENDBRANCH   1  13
BRANCH   2  25
ATOM     25  C   UNL d   1      52.518  33.495  53.035  0.00  0.00     0.019 C 
BRANCH  25  26
ATOM     26  C   UNL d   1      51.741  33.690  52.838  0.00  0.00     0.088 A 
ATOM     27  C   UNL d   1      51.513  34.175  52.213  0.00  0.00     0.272 A 
ATOM     28  N   UNL d   1      50.685  34.218  52.221  0.00  0.00    -0.259 N 
ATOM     29  O   UNL d   1      52.014  34.553  51.673  0.00  0.00    -0.266 OA
ATOM     30  C   UNL d   1      50.410  33.760  52.850  0.00  0.00     0.153 A 
ATOM     31  S   UNL d   1      51.069  33.435  53.229  0.00  0.00    -0.053 SA
ATOM     32  S   UNL d   1      49.628  33.650  53.057  0.00  0.00    -0.052 SA
BRANCH  28  33
ATOM     33  C   UNL d   1      50.216  34.647  51.689  0.00  0.00     0.084 C 
BRANCH  33  34
ATOM     34  C   UNL d   1      49.515  34.310  51.400  0.00  0.00     0.019 C 
ATOM     35  C   UNL d   1      49.058  34.732  50.851  0.00  0.00     0.002 C 
ENDBRANCH  33  34
ENDBRANCH  28  33
ENDBRANCH  25  26
ENDBRANCH   2  25
TORSDOF 8
ENDMDL
MODEL 4
REMARK VINA RESULT:      -3.0      1.495      4.429
REMARK  8 active torsions:
REMARK  status: ('A' for Active; 'I' for Inactive)
REMARK    1  A    between atoms: N_9  and  C_1 
REMARK    2  A    between atoms: C_12  and  C_2 
REMARK    3  A    between atoms: C_28  and  N_6 
REMARK    4  A    between atoms: C_10  and  C_12 
REMARK    5  A    between atoms: C_16  and  C_14 
REMARK    6  A    between atoms: C_20  and  C_16 
REMARK    7  A    between atoms: O_31  and  C_20 
REMARK    8  A    between atoms: C_34  and  C_28 
ROOT
ATOM      1  C   UNL d   1      53.303  32.218  53.603  0.00  0.00     0.154 A 
ATOM      2  C   UNL d   1      52.693  32.744  53.812  0.00  0.00     0.092 A 
ATOM      3  N   UNL d   1      54.088  32.379  53.847  0.00  0.00    -0.210 NA
ATOM      4  N   UNL d   1      53.646  33.578  54.500  0.00  0.00    -0.258 N 
ATOM      5  C   UNL d   1      54.263  33.056  54.295  0.00  0.00     0.152 A 
ATOM      6  C   UNL d   1      52.861  33.432  54.265  0.00  0.00     0.269 A 
ATOM      7  C   UNL d   1      55.030  33.213  54.533  0.00  0.00     0.035 A 
ATOM      8  C   UNL d   1      53.821  34.255  54.947  0.00  0.00     0.084 A 
ATOM      9  O   UNL d   1      52.256  33.954  54.472  0.00  0.00    -0.266 OA
ATOM     10  C   UNL d   1      54.589  34.401  55.180  0.00  0.00     0.019 A 
ATOM     11  C   UNL d   1      55.194  33.880  54.973  0.00  0.00     0.005 A 
ATOM     12  C   UNL d   1      55.635  32.691  54.326  0.00  0.00     0.003 C 
ENDROOT
BRANCH   1  13
ATOM     13  N   UNL d   1      53.137  31.542  53.158  0.00  0.00    -0.284 N 
ATOM     14  C   UNL d   1      53.056  30.815  53.540  0.00  0.00     0.129 A 
ATOM     15  C   UNL d   1      52.890  30.144  53.093  0.00  0.00     0.296 A 
ATOM     16  O   UNL d   1      52.807  29.414  53.467  0.00  0.00    -0.264 OA
ATOM     17  N   UNL d   1      52.806  30.194  52.273  0.00  0.00    -0.204 NA
ATOM     18  C   UNL d   1      52.889  30.924  51.898  0.00  0.00     0.121 A 
ATOM     19  C   UNL d   1      53.055  31.604  52.341  0.00  0.00     0.102 A 
BRANCH  14  20
ATOM     20  C   UNL d   1      53.139  30.765  54.351  0.00  0.00     0.091 C 
BRANCH  20  21
ATOM     21  C   UNL d   1      53.340  30.047  54.704  0.00  0.00     0.298 C 
ATOM     22  O   UNL d   1      54.002  29.625  54.435  0.00  0.00    -0.259 OA
BRANCH  21  23
ATOM     23  O   UNL d   1      52.893  29.741  55.323  0.00  0.00    -0.296 OA
ATOM     24  C   UNL d   1      53.257  29.318  55.931  0.00  0.00     0.185 C 
ENDBRANCH  21  23
ENDBRANCH  20  21
ENDBRANCH  14  20
ENDBRANCH   1  13
BRANCH   2  25
ATOM     25  C   UNL d   1      51.918  32.593  53.575  0.00  0.00     0.019 C 
BRANCH  25  26
ATOM     26  C   UNL d   1      51.503  33.154  53.135  0.00  0.00     0.088 A 
ATOM     27  C   UNL d   1      50.700  33.321  53.207  0.00  0.00     0.272 A 
ATOM     28  N   UNL d   1      50.520  33.918  52.661  0.00  0.00    -0.259 N 
ATOM     29  O   UNL d   1      50.166  32.962  53.729  0.00  0.00    -0.266 OA
ATOM     30  C   UNL d   1      51.212  34.113  52.257  0.00  0.00     0.153 A 
ATOM     31  S   UNL d   1      51.819  33.637  52.555  0.00  0.00    -0.053 SA
ATOM     32  S   UNL d   1      51.282  34.677  51.669  0.00  0.00    -0.052 SA
BRANCH  28  33
ATOM     33  C   UNL d   1      49.774  34.258  52.542  0.00  0.00     0.084 C 
BRANCH  33  34
ATOM     34  C   UNL d   1      49.577  34.961  52.940  0.00  0.00     0.019 C 
ATOM     35  C   UNL d   1      48.824  35.291  52.833  0.00  0.00     0.002 C 
ENDBRANCH  33  34
ENDBRANCH  28  33
ENDBRANCH  25  26
ENDBRANCH   2  25
TORSDOF 8
ENDMDL
MODEL 5
REMARK VINA RESULT:      -3.0      1.649      3.323
REMARK  8 active torsions:
REMARK  status: ('A' for Active; 'I' for Inactive)
REMARK    1  A    between atoms: N_9  and  C_1 
REMARK    2  A    between atoms: C_12  and  C_2 
REMARK    3  A    between atoms: C_28  and  N_6 
REMARK    4  A    between atoms: C_10  and  C_12 
REMARK    5  A    between atoms: C_16  and  C_14 
REMARK    6  A    between atoms: C_20  and  C_16 
REMARK    7  A    between atoms: O_31  and  C_20 
REMARK    8  A    between atoms: C_34  and  C_28 
ROOT
ATOM      1  C   UNL d   1      52.036  34.256  53.181  0.00  0.00     0.154 A 
ATOM      2  C   UNL d   1      52.202  33.531  53.555  0.00  0.00     0.092 A 
ATOM      3  N   UNL d   1      52.327  34.967  53.514  0.00  0.00    -0.210 NA
ATOM      4  N   UNL d   1      52.940  34.227  54.578  0.00  0.00    -0.258 N 
ATOM      5  C   UNL d   1      52.778  34.957  54.211  0.00  0.00     0.152 A 
ATOM      6  C   UNL d   1      52.659  33.511  54.260  0.00  0.00     0.269 A 
ATOM      7  C   UNL d   1      53.062  35.653  54.535  0.00  0.00     0.035 A 
ATOM      8  C   UNL d   1      53.392  34.216  55.275  0.00  0.00     0.084 A 
ATOM      9  O   UNL d   1      52.824  32.792  54.631  0.00  0.00    -0.266 OA
ATOM     10  C   UNL d   1      53.670  34.916  55.590  0.00  0.00     0.019 A 
ATOM     11  C   UNL d   1      53.505  35.634  55.220  0.00  0.00     0.005 A 
ATOM     12  C   UNL d   1      52.897  36.372  54.165  0.00  0.00     0.003 C 
ENDROOT
BRANCH   1  13
ATOM     13  N   UNL d   1      51.587  34.275  52.488  0.00  0.00    -0.284 N 
ATOM     14  C   UNL d   1      50.774  34.406  52.534  0.00  0.00     0.129 A 
ATOM     15  C   UNL d   1      50.331  34.424  51.841  0.00  0.00     0.296 A 
ATOM     16  O   UNL d   1      49.517  34.554  51.880  0.00  0.00    -0.264 OA
ATOM     17  N   UNL d   1      50.692  34.312  51.107  0.00  0.00    -0.204 NA
ATOM     18  C   UNL d   1      51.506  34.182  51.068  0.00  0.00     0.121 A 
ATOM     19  C   UNL d   1      51.958  34.162  51.761  0.00  0.00     0.102 A 
BRANCH  14  20
ATOM     20  C   UNL d   1      50.416  34.516  53.260  0.00  0.00     0.091 C 
BRANCH  20  21
ATOM     21  C   UNL d   1      49.657  34.836  53.305  0.00  0.00     0.298 C 
ATOM     22  O   UNL d   1      48.996  34.353  53.164  0.00  0.00    -0.259 OA
BRANCH  21  23
ATOM     23  O   UNL d   1      49.542  35.629  53.488  0.00  0.00    -0.296 OA
ATOM     24  C   UNL d   1      48.860  35.872  53.884  0.00  0.00     0.185 C 
ENDBRANCH  21  23
ENDBRANCH  20  21
ENDBRANCH  14  20
ENDBRANCH   1  13
BRANCH   2  25
ATOM     25  C   UNL d   1      51.920  32.826  53.234  0.00  0.00     0.019 C 
BRANCH  25  26
ATOM     26  C   UNL d   1      52.418  32.172  53.171  0.00  0.00     0.088 A 
ATOM     27  C   UNL d   1      52.186  31.385  53.242  0.00  0.00     0.272 A 
ATOM     28  N   UNL d   1      52.862  30.916  53.140  0.00  0.00    -0.259 N 
ATOM     29  O   UNL d   1      51.420  31.107  53.389  0.00  0.00    -0.266 OA
ATOM     30  C   UNL d   1      53.504  31.417  53.007  0.00  0.00     0.153 A 
ATOM     31  S   UNL d   1      53.223  32.194  53.027  0.00  0.00    -0.053 SA
ATOM     32  S   UNL d   1      54.276  31.183  52.878  0.00  0.00    -0.052 SA
BRANCH  28  33
ATOM     33  C   UNL d   1      52.887  30.088  53.167  0.00  0.00     0.084 C 
BRANCH  33  34
ATOM     34  C   UNL d   1      53.131  29.710  53.865  0.00  0.00     0.019 C 
ATOM     35  C   UNL d   1      53.089  28.883  53.915  0.00  0.00     0.002 C 
ENDBRANCH  33  34
ENDBRANCH  28  33
ENDBRANCH  25  26
ENDBRANCH   2  25
TORSDOF 8
ENDMDL
MODEL 6
REMARK VINA RESULT:      -2.6      2.077      4.513
REMARK  8 active torsions:
REMARK  status: ('A' for Active; 'I' for Inactive)
REMARK    1  A    between atoms: N_9  and  C_1 
REMARK    2  A    between atoms: C_12  and  C_2 
REMARK    3  A    between atoms: C_28  and  N_6 
REMARK    4  A    between atoms: C_10  and  C_12 
REMARK    5  A    between atoms: C_16  and  C_14 
REMARK    6  A    between atoms: C_20  and  C_16 
REMARK    7  A    between atoms: O_31  and  C_20 
REMARK    8  A    between atoms: C_34  and  C_28 
ROOT
ATOM      1  C   UNL d   1      52.520  33.350  53.728  0.00  0.00     0.154 A 
ATOM      2  C   UNL d   1      52.224  33.979  53.268  0.00  0.00     0.092 A 
ATOM      3  N   UNL d   1      52.955  33.518  54.424  0.00  0.00    -0.210 NA
ATOM      4  N   UNL d   1      52.796  34.925  54.193  0.00  0.00    -0.258 N 
ATOM      5  C   UNL d   1      53.095  34.302  54.659  0.00  0.00     0.152 A 
ATOM      6  C   UNL d   1      52.361  34.775  53.499  0.00  0.00     0.269 A 
ATOM      7  C   UNL d   1      53.520  34.465  55.339  0.00  0.00     0.035 A 
ATOM      8  C   UNL d   1      52.935  35.709  54.428  0.00  0.00     0.084 A 
ATOM      9  O   UNL d   1      52.068  35.397  53.043  0.00  0.00    -0.266 OA
ATOM     10  C   UNL d   1      53.361  35.860  55.108  0.00  0.00     0.019 A 
ATOM     11  C   UNL d   1      53.653  35.238  55.563  0.00  0.00     0.005 A 
ATOM     12  C   UNL d   1      53.813  33.843  55.795  0.00  0.00     0.003 C 
ENDROOT
BRANCH   1  13
ATOM     13  N   UNL d   1      52.385  32.568  53.501  0.00  0.00    -0.284 N 
ATOM     14  C   UNL d   1      52.992  32.140  53.141  0.00  0.00     0.129 A 
ATOM     15  C   UNL d   1      52.853  31.360  52.916  0.00  0.00     0.296 A 
ATOM     16  O   UNL d   1      53.455  30.926  52.555  0.00  0.00    -0.264 OA
ATOM     17  N   UNL d   1      52.119  31.008  53.048  0.00  0.00    -0.204 NA
ATOM     18  C   UNL d   1      51.517  31.441  53.409  0.00  0.00     0.121 A 
ATOM     19  C   UNL d   1      51.649  32.226  53.638  0.00  0.00     0.102 A 
BRANCH  14  20
ATOM     20  C   UNL d   1      53.719  32.488  53.010  0.00  0.00     0.091 C 
BRANCH  20  21
ATOM     21  C   UNL d   1      54.413  32.061  53.136  0.00  0.00     0.298 C 
ATOM     22  O   UNL d   1      54.439  31.480  53.729  0.00  0.00    -0.259 OA
BRANCH  21  23
ATOM     23  O   UNL d   1      55.085  32.201  52.683  0.00  0.00    -0.296 OA
ATOM     24  C   UNL d   1      55.667  32.721  52.949  0.00  0.00     0.185 C 
ENDBRANCH  21  23
ENDBRANCH  20  21
ENDBRANCH  14  20
ENDBRANCH   1  13
BRANCH   2  25
ATOM     25  C   UNL d   1      51.795  33.822  52.583  0.00  0.00     0.019 C 
BRANCH  25  26
ATOM     26  C   UNL d   1      51.039  34.137  52.487  0.00  0.00     0.088 A 
ATOM     27  C   UNL d   1      50.660  34.264  51.767  0.00  0.00     0.272 A 
ATOM     28  N   UNL d   1      49.915  34.587  51.931  0.00  0.00    -0.259 N 
ATOM     29  O   UNL d   1      50.964  34.101  51.014  0.00  0.00    -0.266 OA
ATOM     30  C   UNL d   1      49.840  34.657  52.750  0.00  0.00     0.153 A 
ATOM     31  S   UNL d   1      50.540  34.376  53.089  0.00  0.00    -0.053 SA
ATOM     32  S   UNL d   1      49.190  34.950  53.149  0.00  0.00    -0.052 SA
BRANCH  28  33
ATOM     33  C   UNL d   1      49.345  34.803  51.370  0.00  0.00     0.084 C 
BRANCH  33  34
ATOM     34  C   UNL d   1      48.720  34.281  51.201  0.00  0.00     0.019 C 
ATOM     35  C   UNL d   1      48.127  34.516  50.672  0.00  0.00     0.002 C 
ENDBRANCH  33  34
ENDBRANCH  28  33
ENDBRANCH  25  26
ENDBRANCH   2  25
TORSDOF 8
ENDMDL
