MODEL 1
REMARK VINA RESULT:      38.7      0.000      0.000
REMARK  2 active torsions:
REMARK  status: ('A' for Active; 'I' for Inactive)
REMARK    1  A    between atoms: C_7  and  C_1 
REMARK    2  A    between atoms: C_9  and  C_1 
ROOT
ATOM      1  C   UNL d   1      58.276  49.686  51.437  0.00  0.00     0.240 A 
ATOM      2  S   UNL d   1      58.428  49.679  50.627  0.00  0.00    -0.043 SA
ATOM      3  N   UNL d   1      57.498  49.694  51.712  0.00  0.00    -0.199 NA
ATOM      4  C   UNL d   1      57.802  49.680  50.097  0.00  0.00     0.181 A 
ATOM      5  N   UNL d   1      57.009  49.688  50.365  0.00  0.00    -0.236 N 
ATOM      6  C   UNL d   1      56.872  49.695  51.177  0.00  0.00     0.352 A 
ATOM      7  N   UNL d   1      57.786  49.674  49.263  0.00  0.00    -0.219 NA
ATOM      8  O   UNL d   1      56.096  49.702  51.456  0.00  0.00    -0.244 OA
ATOM      9  C   UNL d   1      56.518  49.686  49.702  0.00  0.00     0.107 A 
ATOM     10  C   UNL d   1      56.995  49.678  49.026  0.00  0.00     0.120 A 
ENDROOT
BRANCH   1  11
ATOM     11  C   UNL d   1      58.125  49.694  52.246  0.00  0.00     0.429 C 
ATOM     12  F   UNL d   1      57.984  49.700  52.986  0.00  0.00    -0.167 F 
ATOM     13  F   UNL d   1      58.674  49.704  52.900  0.00  0.00    -0.167 F 
ATOM     14  F   UNL d   1      57.366  49.692  52.651  0.00  0.00    -0.167 F 
ENDBRANCH   1  11
BRANCH   1  15
ATOM     15  C   UNL d   1      59.051  49.679  51.155  0.00  0.00     0.016 A 
ATOM     16  C   UNL d   1      59.189  49.675  50.347  0.00  0.00    -0.001 A 
ATOM     17  C   UNL d   1      59.964  49.667  50.064  0.00  0.00    -0.000 A 
ATOM     18  C   UNL d   1      60.602  49.664  50.591  0.00  0.00    -0.000 A 
ATOM     19  C   UNL d   1      60.452  49.668  51.403  0.00  0.00    -0.000 A 
ATOM     20  C   UNL d   1      61.377  49.656  50.308  0.00  0.00    -0.000 C 
ATOM     21  C   UNL d   1      59.686  49.675  51.682  0.00  0.00    -0.001 A 
ENDBRANCH   1  15
TORSDOF 2
ENDMDL
