MODEL 1
REMARK VINA RESULT:      -6.3      0.000      0.000
REMARK  3 active torsions:
REMARK  status: ('A' for Active; 'I' for Inactive)
REMARK    1  A    between atoms: C_14  and  C_4 
REMARK    2  A    between atoms: C_10  and  O_11 
REMARK    3  A    between atoms: O_11  and  C_14 
ROOT
ATOM      1  C   UNL d   1     -41.671-122.120 -52.301  0.00  0.00     0.144 C 
ENDROOT
BRANCH   1   2
ATOM      2  O   UNL d   1     -41.564-122.683 -52.905  0.00  0.00    -0.303 OA
BRANCH   2   3
ATOM      3  C   UNL d   1     -41.722-122.491 -53.670  0.00  0.00     0.100 A 
ATOM      4  C   UNL d   1     -41.503-123.001 -54.286  0.00  0.00     0.024 A 
ATOM      5  C   UNL d   1     -41.673-122.788 -55.073  0.00  0.00     0.013 A 
ATOM      6  C   UNL d   1     -41.123-123.710 -54.143  0.00  0.00     0.002 C 
ATOM      7  C   UNL d   1     -42.056-122.078 -55.249  0.00  0.00     0.058 A 
ATOM      8  C   UNL d   1     -42.276-121.568 -54.633  0.00  0.00     0.013 A 
ATOM      9 CL   UNL d   1     -42.234-121.853 -56.048  0.00  0.00    -0.082 Cl
ATOM     10  C   UNL d   1     -42.114-121.763 -53.838  0.00  0.00     0.026 A 
ENDBRANCH   2   3
ENDBRANCH   1   2
BRANCH   1  11
ATOM     11  C   UNL d   1     -41.732-122.354 -51.528  0.00  0.00     0.142 A 
ATOM     12  N   UNL d   1     -42.411-122.300 -51.061  0.00  0.00    -0.057 NA
ATOM     13  C   UNL d   1     -42.230-122.595 -50.330  0.00  0.00     0.735 A 
ATOM     14  N   UNL d   1     -41.453-122.830 -50.336  0.00  0.00    -0.136 N 
ATOM     15  N   UNL d   1     -42.685-122.682 -49.641  0.00  0.00    -0.059 NA
ATOM     16  C   UNL d   1     -41.164-122.676 -51.076  0.00  0.00     0.120 A 
ATOM     17  C   UNL d   1     -41.123-123.159 -49.640  0.00  0.00     0.100 A 
ATOM     18  C   UNL d   1     -41.564-123.243 -48.971  0.00  0.00     0.041 A 
ATOM     19  C   UNL d   1     -42.354-123.002 -48.971  0.00  0.00     0.119 A 
ENDBRANCH   1  11
TORSDOF 3
ENDMDL
MODEL 2
REMARK VINA RESULT:      -5.0      1.396      2.204
REMARK  3 active torsions:
REMARK  status: ('A' for Active; 'I' for Inactive)
REMARK    1  A    between atoms: C_14  and  C_4 
REMARK    2  A    between atoms: C_10  and  O_11 
REMARK    3  A    between atoms: O_11  and  C_14 
ROOT
ATOM      1  C   UNL d   1     -41.618-123.634 -50.603  0.00  0.00     0.144 C 
ENDROOT
BRANCH   1   2
ATOM      2  O   UNL d   1     -41.224-123.036 -51.029  0.00  0.00    -0.303 OA
BRANCH   2   3
ATOM      3  C   UNL d   1     -41.207-123.056 -51.833  0.00  0.00     0.100 A 
ATOM      4  C   UNL d   1     -41.158-122.353 -52.270  0.00  0.00     0.024 A 
ATOM      5  C   UNL d   1     -41.141-122.390 -53.103  0.00  0.00     0.013 A 
ATOM      6  C   UNL d   1     -41.127-121.621 -51.907  0.00  0.00     0.002 C 
ATOM      7  C   UNL d   1     -41.172-123.114 -53.497  0.00  0.00     0.058 A 
ATOM      8  C   UNL d   1     -41.220-123.817 -53.060  0.00  0.00     0.013 A 
ATOM      9 CL   UNL d   1     -41.155-123.160 -54.345  0.00  0.00    -0.082 Cl
ATOM     10  C   UNL d   1     -41.238-123.801 -52.226  0.00  0.00     0.026 A 
ENDBRANCH   2   3
ENDBRANCH   1   2
BRANCH   1  11
ATOM     11  C   UNL d   1     -41.699-123.579 -49.800  0.00  0.00     0.142 A 
ATOM     12  N   UNL d   1     -42.396-123.396 -49.397  0.00  0.00    -0.057 NA
ATOM     13  C   UNL d   1     -42.231-123.401 -48.605  0.00  0.00     0.735 A 
ATOM     14  N   UNL d   1     -41.445-123.582 -48.511  0.00  0.00    -0.136 N 
ATOM     15  N   UNL d   1     -42.708-123.258 -47.940  0.00  0.00    -0.059 NA
ATOM     16  C   UNL d   1     -41.136-123.688 -49.251  0.00  0.00     0.120 A 
ATOM     17  C   UNL d   1     -41.128-123.623 -47.737  0.00  0.00     0.100 A 
ATOM     18  C   UNL d   1     -41.591-123.485 -47.091  0.00  0.00     0.041 A 
ATOM     19  C   UNL d   1     -42.389-123.301 -47.194  0.00  0.00     0.119 A 
ENDBRANCH   1  11
TORSDOF 3
ENDMDL
MODEL 3
REMARK VINA RESULT:      -4.4      2.422      4.689
REMARK  3 active torsions:
REMARK  status: ('A' for Active; 'I' for Inactive)
REMARK    1  A    between atoms: C_14  and  C_4 
REMARK    2  A    between atoms: C_10  and  O_11 
REMARK    3  A    between atoms: O_11  and  C_14 
ROOT
ATOM      1  C   UNL d   1     -41.411-123.090 -53.016  0.00  0.00     0.144 C 
ENDROOT
BRANCH   1   2
ATOM      2  O   UNL d   1     -41.125-122.575 -52.427  0.00  0.00    -0.303 OA
BRANCH   2   3
ATOM      3  C   UNL d   1     -41.163-122.786 -51.651  0.00  0.00     0.100 A 
ATOM      4  C   UNL d   1     -41.162-122.207 -51.058  0.00  0.00     0.024 A 
ATOM      5  C   UNL d   1     -41.201-122.441 -50.259  0.00  0.00     0.013 A 
ATOM      6  C   UNL d   1     -41.123-121.410 -51.233  0.00  0.00     0.002 C 
ATOM      7  C   UNL d   1     -41.240-123.238 -50.051  0.00  0.00     0.058 A 
ATOM      8  C   UNL d   1     -41.241-123.817 -50.644  0.00  0.00     0.013 A 
ATOM      9 CL   UNL d   1     -41.280-123.486 -49.239  0.00  0.00    -0.082 Cl
ATOM     10  C   UNL d   1     -41.203-123.603 -51.450  0.00  0.00     0.026 A 
ENDBRANCH   2   3
ENDBRANCH   1   2
BRANCH   1  11
ATOM     11  C   UNL d   1     -41.628-122.803 -53.741  0.00  0.00     0.142 A 
ATOM     12  N   UNL d   1     -41.202-122.255 -54.188  0.00  0.00    -0.057 NA
ATOM     13  C   UNL d   1     -41.614-122.123 -54.872  0.00  0.00     0.735 A 
ATOM     14  N   UNL d   1     -42.286-122.579 -54.856  0.00  0.00    -0.136 N 
ATOM     15  N   UNL d   1     -41.460-121.633 -55.525  0.00  0.00    -0.059 NA
ATOM     16  C   UNL d   1     -42.278-122.988 -54.158  0.00  0.00     0.120 A 
ATOM     17  C   UNL d   1     -42.815-122.546 -55.504  0.00  0.00     0.100 A 
ATOM     18  C   UNL d   1     -42.665-122.071 -56.137  0.00  0.00     0.041 A 
ATOM     19  C   UNL d   1     -41.981-121.609 -56.148  0.00  0.00     0.119 A 
ENDBRANCH   1  11
TORSDOF 3
ENDMDL
