MODEL 1
REMARK VINA RESULT:      62.9      0.000      0.000
REMARK  6 active torsions:
REMARK  status: ('A' for Active; 'I' for Inactive)
REMARK    1  A    between atoms: C_10  and  N_3 
REMARK    2  A    between atoms: C_11  and  N_8 
REMARK    3  A    between atoms: C_12  and  C_11 
REMARK    4  A    between atoms: O_15  and  C_12 
REMARK    5  A    between atoms: C_18  and  O_15 
REMARK    6  A    between atoms: C_22  and  C_18 
ROOT
ATOM      1  C   UNL d   1     -48.027  30.067  34.984  0.00  0.00     0.191 A 
ATOM      2  C   UNL d   1     -47.933  29.541  35.622  0.00  0.00     0.196 A 
ATOM      3  N   UNL d   1     -47.707  30.795  35.216  0.00  0.00    -0.193 N 
ATOM      4  N   UNL d   1     -47.426  30.713  35.977  0.00  0.00    -0.058 NA
ATOM      5  N   UNL d   1     -47.558  29.957  36.232  0.00  0.00    -0.122 NA
ATOM      6  N   UNL d   1     -48.384  29.809  34.297  0.00  0.00    -0.204 NA
ATOM      7  C   UNL d   1     -48.200  28.772  35.555  0.00  0.00     0.289 A 
ATOM      8  N   UNL d   1     -48.560  28.509  34.863  0.00  0.00    -0.249 N 
ATOM      9  C   UNL d   1     -48.654  29.035  34.225  0.00  0.00     0.187 A 
ATOM     10  O   UNL d   1     -48.106  28.246  36.193  0.00  0.00    -0.265 OA
ENDROOT
BRANCH   8  11
ATOM     11  C   UNL d   1     -48.833  27.729  34.787  0.00  0.00     0.153 C 
BRANCH  11  12
ATOM     12  C   UNL d   1     -49.125  27.454  34.060  0.00  0.00     0.318 C 
ATOM     13  O   UNL d   1     -48.727  27.638  33.363  0.00  0.00    -0.257 OA
BRANCH  12  14
ATOM     14  O   UNL d   1     -49.807  27.000  34.044  0.00  0.00    -0.270 OA
BRANCH  14  15
ATOM     15  C   UNL d   1     -50.057  26.653  33.337  0.00  0.00     0.126 C 
BRANCH  15  16
ATOM     16  C   UNL d   1     -50.724  26.190  33.330  0.00  0.00     0.025 A 
ATOM     17  C   UNL d   1     -50.651  25.367  33.313  0.00  0.00     0.002 A 
ATOM     18  C   UNL d   1     -51.324  24.888  33.306  0.00  0.00     0.000 A 
ATOM     19  C   UNL d   1     -52.069  25.240  33.314  0.00  0.00     0.000 A 
ATOM     20  C   UNL d   1     -52.143  26.063  33.331  0.00  0.00     0.000 A 
ATOM     21  C   UNL d   1     -51.472  26.535  33.338  0.00  0.00     0.002 A 
ENDBRANCH  15  16
ENDBRANCH  14  15
ENDBRANCH  12  14
ENDBRANCH  11  12
ENDBRANCH   8  11
BRANCH   3  22
ATOM     22  C   UNL d   1     -47.661  31.483  34.798  0.00  0.00     0.086 A 
ATOM     23  C   UNL d   1     -47.113  31.560  34.168  0.00  0.00     0.019 A 
ATOM     24  C   UNL d   1     -47.073  32.254  33.754  0.00  0.00     0.002 A 
ATOM     25  C   UNL d   1     -47.576  32.899  33.949  0.00  0.00     0.000 A 
ATOM     26  C   UNL d   1     -48.104  32.817  34.560  0.00  0.00     0.002 A 
ATOM     27  C   UNL d   1     -47.537  33.626  33.518  0.00  0.00     0.000 C 
ATOM     28  C   UNL d   1     -48.154  32.118  34.988  0.00  0.00     0.019 A 
ENDBRANCH   3  22
TORSDOF 6
ENDMDL
