MODEL 1
REMARK VINA RESULT:      51.2      0.000      0.000
REMARK  5 active torsions:
REMARK  status: ('A' for Active; 'I' for Inactive)
REMARK    1  A    between atoms: C_9  and  N_2 
REMARK    2  A    between atoms: C_7  and  O_10 
REMARK    3  A    between atoms: O_11  and  C_8 
REMARK    4  A    between atoms: C_12  and  C_9 
REMARK    5  A    between atoms: O_10  and  C_12 
ROOT
ATOM      1  C   UNL d   1     -52.081  25.976  34.892  0.00  0.00     0.110 C 
ENDROOT
BRANCH   1   2
ATOM      2  N   UNL d   1     -51.876  25.419  34.318  0.00  0.00    -0.266 N 
ATOM      3  C   UNL d   1     -51.260  25.489  33.778  0.00  0.00     0.296 A 
ATOM      4  S   UNL d   1     -51.257  24.796  33.306  0.00  0.00    -0.025 SA
ATOM      5  O   UNL d   1     -50.738  26.119  33.709  0.00  0.00    -0.259 OA
ATOM      6  C   UNL d   1     -51.875  24.312  33.566  0.00  0.00     0.050 A 
ATOM      7  C   UNL d   1     -52.134  23.567  33.307  0.00  0.00     0.008 A 
ATOM      8  C   UNL d   1     -52.255  24.693  34.186  0.00  0.00     0.074 A 
ATOM      9  C   UNL d   1     -52.783  23.215  33.686  0.00  0.00     0.001 A 
ATOM     10  C   UNL d   1     -53.162  23.597  34.306  0.00  0.00     0.002 A 
ATOM     11  C   UNL d   1     -52.901  24.340  34.562  0.00  0.00     0.018 A 
ENDBRANCH   1   2
BRANCH   1  12
ATOM     12  C   UNL d   1     -51.751  25.941  35.644  0.00  0.00     0.142 C 
BRANCH  12  13
ATOM     13  O   UNL d   1     -52.214  26.057  36.319  0.00  0.00    -0.302 OA
BRANCH  13  14
ATOM     14  C   UNL d   1     -51.861  26.270  37.035  0.00  0.00     0.122 A 
ATOM     15  C   UNL d   1     -52.191  26.015  37.747  0.00  0.00     0.117 A 
ATOM     16  C   UNL d   1     -51.839  26.227  38.458  0.00  0.00     0.026 A 
ATOM     17  C   UNL d   1     -51.157  26.692  38.456  0.00  0.00     0.002 A 
ATOM     18  C   UNL d   1     -50.829  26.945  37.738  0.00  0.00     0.002 A 
ATOM     19  C   UNL d   1     -51.187  26.729  37.031  0.00  0.00     0.027 A 
BRANCH  15  20
ATOM     20  O   UNL d   1     -52.875  25.547  37.782  0.00  0.00    -0.326 OA
ATOM     21  C   UNL d   1     -52.984  25.032  38.419  0.00  0.00     0.181 C 
ENDBRANCH  15  20
ENDBRANCH  13  14
ENDBRANCH  12  13
ENDBRANCH   1  12
TORSDOF 5
ENDMDL
MODEL 2
REMARK VINA RESULT:      52.0      3.889      5.991
REMARK  5 active torsions:
REMARK  status: ('A' for Active; 'I' for Inactive)
REMARK    1  A    between atoms: C_9  and  N_2 
REMARK    2  A    between atoms: C_7  and  O_10 
REMARK    3  A    between atoms: O_11  and  C_8 
REMARK    4  A    between atoms: C_12  and  C_9 
REMARK    5  A    between atoms: O_10  and  C_12 
ROOT
ATOM      1  C   UNL d   1     -48.380  28.325  34.387  0.00  0.00     0.110 C 
ENDROOT
BRANCH   1   2
ATOM      2  N   UNL d   1     -48.201  28.781  35.050  0.00  0.00    -0.266 N 
ATOM      3  C   UNL d   1     -48.377  28.588  35.830  0.00  0.00     0.296 A 
ATOM      4  S   UNL d   1     -48.094  29.210  36.315  0.00  0.00    -0.025 SA
ATOM      5  O   UNL d   1     -48.761  27.912  36.092  0.00  0.00    -0.259 OA
ATOM      6  C   UNL d   1     -47.746  29.776  35.822  0.00  0.00     0.050 A 
ATOM      7  C   UNL d   1     -47.379  30.500  35.992  0.00  0.00     0.008 A 
ATOM      8  C   UNL d   1     -47.812  29.514  35.047  0.00  0.00     0.074 A 
ATOM      9  C   UNL d   1     -47.079  30.954  35.366  0.00  0.00     0.001 A 
ATOM     10  C   UNL d   1     -47.144  30.691  34.591  0.00  0.00     0.002 A 
ATOM     11  C   UNL d   1     -47.511  29.968  34.424  0.00  0.00     0.018 A 
ENDBRANCH   1   2
BRANCH   1  12
ATOM     12  C   UNL d   1     -49.028  27.819  34.390  0.00  0.00     0.142 C 
BRANCH  12  13
ATOM     13  O   UNL d   1     -49.170  27.303  33.760  0.00  0.00    -0.302 OA
BRANCH  13  14
ATOM     14  C   UNL d   1     -49.933  27.019  33.618  0.00  0.00     0.122 A 
ATOM     15  C   UNL d   1     -50.074  26.206  33.609  0.00  0.00     0.117 A 
ATOM     16  C   UNL d   1     -50.832  25.925  33.468  0.00  0.00     0.026 A 
ATOM     17  C   UNL d   1     -51.448  26.457  33.335  0.00  0.00     0.002 A 
ATOM     18  C   UNL d   1     -51.302  27.273  33.344  0.00  0.00     0.002 A 
ATOM     19  C   UNL d   1     -50.540  27.546  33.487  0.00  0.00     0.027 A 
BRANCH  15  20
ATOM     20  O   UNL d   1     -49.475  25.646  33.739  0.00  0.00    -0.326 OA
ATOM     21  C   UNL d   1     -49.483  24.936  33.317  0.00  0.00     0.181 C 
ENDBRANCH  15  20
ENDBRANCH  13  14
ENDBRANCH  12  13
ENDBRANCH   1  12
TORSDOF 5
ENDMDL
MODEL 3
REMARK VINA RESULT:      53.3      2.743      3.388
REMARK  5 active torsions:
REMARK  status: ('A' for Active; 'I' for Inactive)
REMARK    1  A    between atoms: C_9  and  N_2 
REMARK    2  A    between atoms: C_7  and  O_10 
REMARK    3  A    between atoms: O_11  and  C_8 
REMARK    4  A    between atoms: C_12  and  C_9 
REMARK    5  A    between atoms: O_10  and  C_12 
ROOT
ATOM      1  C   UNL d   1     -51.719  25.274  33.399  0.00  0.00     0.110 C 
ENDROOT
BRANCH   1   2
ATOM      2  N   UNL d   1     -52.051  24.519  33.370  0.00  0.00    -0.266 N 
ATOM      3  C   UNL d   1     -51.636  23.810  33.350  0.00  0.00     0.296 A 
ATOM      4  S   UNL d   1     -52.197  23.188  33.323  0.00  0.00    -0.025 SA
ATOM      5  O   UNL d   1     -50.820  23.721  33.356  0.00  0.00    -0.259 OA
ATOM      6  C   UNL d   1     -52.951  23.529  33.326  0.00  0.00     0.050 A 
ATOM      7  C   UNL d   1     -53.707  23.188  33.306  0.00  0.00     0.008 A 
ATOM      8  C   UNL d   1     -52.862  24.345  33.355  0.00  0.00     0.074 A 
ATOM      9  C   UNL d   1     -54.371  23.685  33.315  0.00  0.00     0.001 A 
ATOM     10  C   UNL d   1     -54.281  24.501  33.344  0.00  0.00     0.002 A 
ATOM     11  C   UNL d   1     -53.526  24.838  33.364  0.00  0.00     0.018 A 
ENDBRANCH   1   2
BRANCH   1  12
ATOM     12  C   UNL d   1     -51.253  25.500  34.037  0.00  0.00     0.142 C 
BRANCH  12  13
ATOM     13  O   UNL d   1     -50.614  26.015  33.938  0.00  0.00    -0.302 OA
BRANCH  13  14
ATOM     14  C   UNL d   1     -50.742  26.805  33.734  0.00  0.00     0.122 A 
ATOM     15  C   UNL d   1     -50.116  27.342  33.755  0.00  0.00     0.117 A 
ATOM     16  C   UNL d   1     -50.245  28.127  33.551  0.00  0.00     0.026 A 
ATOM     17  C   UNL d   1     -51.000  28.373  33.327  0.00  0.00     0.002 A 
ATOM     18  C   UNL d   1     -51.626  27.831  33.307  0.00  0.00     0.002 A 
ATOM     19  C   UNL d   1     -51.488  27.047  33.512  0.00  0.00     0.027 A 
BRANCH  15  20
ATOM     20  O   UNL d   1     -49.347  27.124  33.977  0.00  0.00    -0.326 OA
ATOM     21  C   UNL d   1     -48.810  27.708  34.211  0.00  0.00     0.181 C 
ENDBRANCH  15  20
ENDBRANCH  13  14
ENDBRANCH  12  13
ENDBRANCH   1  12
TORSDOF 5
ENDMDL
