MODEL 1
REMARK VINA RESULT:      -6.8      0.000      0.000
REMARK  4 active torsions:
REMARK  status: ('A' for Active; 'I' for Inactive)
REMARK       I    between atoms: C_2  and  N_1 
REMARK    1  A    between atoms: C_3  and  N_1 
REMARK       I    between atoms: N_6  and  C_2 
REMARK    2  A    between atoms: C_9  and  N_6 
REMARK    3  A    between atoms: C_10  and  C_9 
REMARK    4  A    between atoms: C_11  and  C_10 
ROOT
ATOM      1  N   UNL d   1      52.520  32.466  52.663  0.00  0.00    -0.172 NA
ATOM      2  C   UNL d   1      52.826  31.965  53.243  0.00  0.00     0.370 C 
ATOM      3  O   UNL d   1      52.979  32.250  53.997  0.00  0.00    -0.242 OA
ATOM      4  N   UNL d   1      52.978  31.170  53.061  0.00  0.00    -0.189 NA
ENDROOT
BRANCH   1   5
ATOM      5  C   UNL d   1      52.368  33.260  52.845  0.00  0.00     0.167 A 
ATOM      6  N   UNL d   1      52.989  33.769  53.014  0.00  0.00    -0.225 NA
ATOM      7  C   UNL d   1      52.836  34.557  53.195  0.00  0.00     0.101 A 
ATOM      8  C   UNL d   1      52.059  34.839  53.207  0.00  0.00     0.021 A 
ATOM      9  C   UNL d   1      51.440  34.320  53.035  0.00  0.00     0.005 A 
ATOM     10  C   UNL d   1      51.591  33.535  52.855  0.00  0.00     0.039 A 
ENDBRANCH   1   5
BRANCH   4  11
ATOM     11  C   UNL d   1      53.284  30.669  53.640  0.00  0.00     0.104 C 
BRANCH  11  12
ATOM     12  C   UNL d   1      53.136  29.862  53.596  0.00  0.00     0.021 C 
BRANCH  12  13
ATOM     13  C   UNL d   1      53.609  29.335  54.026  0.00  0.00     0.002 C 
ATOM     14  C   UNL d   1      53.268  28.851  54.593  0.00  0.00     0.000 C 
ENDBRANCH  12  13
ENDBRANCH  11  12
ENDBRANCH   4  11
TORSDOF 4
ENDMDL
MODEL 2
REMARK VINA RESULT:      -6.8      2.204      3.900
REMARK  4 active torsions:
REMARK  status: ('A' for Active; 'I' for Inactive)
REMARK       I    between atoms: C_2  and  N_1 
REMARK    1  A    between atoms: C_3  and  N_1 
REMARK       I    between atoms: N_6  and  C_2 
REMARK    2  A    between atoms: C_9  and  N_6 
REMARK    3  A    between atoms: C_10  and  C_9 
REMARK    4  A    between atoms: C_11  and  C_10 
ROOT
ATOM      1  N   UNL d   1      52.707  33.113  53.988  0.00  0.00    -0.172 NA
ATOM      2  C   UNL d   1      52.331  33.713  53.563  0.00  0.00     0.370 C 
ATOM      3  O   UNL d   1      52.724  34.416  53.406  0.00  0.00    -0.242 OA
ATOM      4  N   UNL d   1      51.554  33.602  53.296  0.00  0.00    -0.189 NA
ENDROOT
BRANCH   1   5
ATOM      5  C   UNL d   1      53.484  33.224  54.255  0.00  0.00     0.167 A 
ATOM      6  N   UNL d   1      53.623  33.612  54.964  0.00  0.00    -0.225 NA
ATOM      7  C   UNL d   1      54.395  33.721  55.228  0.00  0.00     0.101 A 
ATOM      8  C   UNL d   1      55.032  33.441  54.781  0.00  0.00     0.021 A 
ATOM      9  C   UNL d   1      54.883  33.051  54.069  0.00  0.00     0.005 A 
ATOM     10  C   UNL d   1      54.115  32.942  53.805  0.00  0.00     0.039 A 
ENDBRANCH   1   5
BRANCH   4  11
ATOM     11  C   UNL d   1      51.178  34.202  52.872  0.00  0.00     0.104 C 
BRANCH  11  12
ATOM     12  C   UNL d   1      50.364  34.173  52.767  0.00  0.00     0.021 C 
BRANCH  12  13
ATOM     13  C   UNL d   1      50.032  34.444  52.058  0.00  0.00     0.002 C 
ATOM     14  C   UNL d   1      49.255  34.702  52.043  0.00  0.00     0.000 C 
ENDBRANCH  12  13
ENDBRANCH  11  12
ENDBRANCH   4  11
TORSDOF 4
ENDMDL
MODEL 3
REMARK VINA RESULT:      -6.5      0.966      4.012
REMARK  4 active torsions:
REMARK  status: ('A' for Active; 'I' for Inactive)
REMARK       I    between atoms: C_2  and  N_1 
REMARK    1  A    between atoms: C_3  and  N_1 
REMARK       I    between atoms: N_6  and  C_2 
REMARK    2  A    between atoms: C_9  and  N_6 
REMARK    3  A    between atoms: C_10  and  C_9 
REMARK    4  A    between atoms: C_11  and  C_10 
ROOT
ATOM      1  N   UNL d   1      52.971  32.067  52.855  0.00  0.00    -0.172 NA
ATOM      2  C   UNL d   1      53.018  32.635  53.452  0.00  0.00     0.370 C 
ATOM      3  O   UNL d   1      53.090  32.404  54.236  0.00  0.00    -0.242 OA
ATOM      4  N   UNL d   1      52.992  33.440  53.257  0.00  0.00    -0.189 NA
ENDROOT
BRANCH   1   5
ATOM      5  C   UNL d   1      52.997  31.263  53.050  0.00  0.00     0.167 A 
ATOM      6  N   UNL d   1      52.306  30.818  53.056  0.00  0.00    -0.225 NA
ATOM      7  C   UNL d   1      52.334  30.020  53.250  0.00  0.00     0.101 A 
ATOM      8  C   UNL d   1      53.055  29.660  53.439  0.00  0.00     0.021 A 
ATOM      9  C   UNL d   1      53.745  30.114  53.430  0.00  0.00     0.005 A 
ATOM     10  C   UNL d   1      53.719  30.910  53.237  0.00  0.00     0.039 A 
ENDBRANCH   1   5
BRANCH   4  11
ATOM     11  C   UNL d   1      53.039  34.008  53.854  0.00  0.00     0.104 C 
BRANCH  11  12
ATOM     12  C   UNL d   1      52.812  34.781  53.695  0.00  0.00     0.021 C 
BRANCH  12  13
ATOM     13  C   UNL d   1      53.206  35.408  54.068  0.00  0.00     0.002 C 
ATOM     14  C   UNL d   1      52.810  35.868  54.618  0.00  0.00     0.000 C 
ENDBRANCH  12  13
ENDBRANCH  11  12
ENDBRANCH   4  11
TORSDOF 4
ENDMDL
MODEL 4
REMARK VINA RESULT:      -6.5      1.294      4.115
REMARK  4 active torsions:
REMARK  status: ('A' for Active; 'I' for Inactive)
REMARK       I    between atoms: C_2  and  N_1 
REMARK    1  A    between atoms: C_3  and  N_1 
REMARK       I    between atoms: N_6  and  C_2 
REMARK    2  A    between atoms: C_9  and  N_6 
REMARK    3  A    between atoms: C_10  and  C_9 
REMARK    4  A    between atoms: C_11  and  C_10 
ROOT
ATOM      1  N   UNL d   1      52.421  32.829  52.540  0.00  0.00    -0.172 NA
ATOM      2  C   UNL d   1      51.752  33.146  52.904  0.00  0.00     0.370 C 
ATOM      3  O   UNL d   1      51.487  32.841  53.619  0.00  0.00    -0.242 OA
ATOM      4  N   UNL d   1      51.348  33.776  52.547  0.00  0.00    -0.189 NA
ENDROOT
BRANCH   1   5
ATOM      5  C   UNL d   1      52.825  32.201  52.898  0.00  0.00     0.167 A 
ATOM      6  N   UNL d   1      52.620  31.426  52.720  0.00  0.00    -0.225 NA
ATOM      7  C   UNL d   1      53.022  30.803  53.077  0.00  0.00     0.101 A 
ATOM      8  C   UNL d   1      53.633  30.953  53.613  0.00  0.00     0.021 A 
ATOM      9  C   UNL d   1      53.833  31.735  53.786  0.00  0.00     0.005 A 
ATOM     10  C   UNL d   1      53.434  32.357  53.432  0.00  0.00     0.039 A 
ENDBRANCH   1   5
BRANCH   4  11
ATOM     11  C   UNL d   1      50.679  34.093  52.911  0.00  0.00     0.104 C 
BRANCH  11  12
ATOM     12  C   UNL d   1      50.146  34.532  52.466  0.00  0.00     0.021 C 
BRANCH  12  13
ATOM     13  C   UNL d   1      49.509  34.905  52.842  0.00  0.00     0.002 C 
ATOM     14  C   UNL d   1      48.897  35.216  52.394  0.00  0.00     0.000 C 
ENDBRANCH  12  13
ENDBRANCH  11  12
ENDBRANCH   4  11
TORSDOF 4
ENDMDL
MODEL 5
REMARK VINA RESULT:      -6.3      2.362      2.811
REMARK  4 active torsions:
REMARK  status: ('A' for Active; 'I' for Inactive)
REMARK       I    between atoms: C_2  and  N_1 
REMARK    1  A    between atoms: C_3  and  N_1 
REMARK       I    between atoms: N_6  and  C_2 
REMARK    2  A    between atoms: C_9  and  N_6 
REMARK    3  A    between atoms: C_10  and  C_9 
REMARK    4  A    between atoms: C_11  and  C_10 
ROOT
ATOM      1  N   UNL d   1      51.954  33.203  53.239  0.00  0.00    -0.172 NA
ATOM      2  C   UNL d   1      52.507  33.595  53.709  0.00  0.00     0.370 C 
ATOM      3  O   UNL d   1      52.457  34.408  53.814  0.00  0.00    -0.242 OA
ATOM      4  N   UNL d   1      53.114  33.166  54.076  0.00  0.00    -0.189 NA
ENDROOT
BRANCH   1   5
ATOM      5  C   UNL d   1      51.347  33.632  52.873  0.00  0.00     0.167 A 
ATOM      6  N   UNL d   1      50.632  33.745  53.260  0.00  0.00    -0.225 NA
ATOM      7  C   UNL d   1      50.031  34.171  52.895  0.00  0.00     0.101 A 
ATOM      8  C   UNL d   1      50.143  34.488  52.140  0.00  0.00     0.021 A 
ATOM      9  C   UNL d   1      50.865  34.370  51.758  0.00  0.00     0.005 A 
ATOM     10  C   UNL d   1      51.465  33.946  52.120  0.00  0.00     0.039 A 
ENDBRANCH   1   5
BRANCH   4  11
ATOM     11  C   UNL d   1      53.667  33.558  54.545  0.00  0.00     0.104 C 
BRANCH  11  12
ATOM     12  C   UNL d   1      54.325  33.150  54.821  0.00  0.00     0.021 C 
BRANCH  12  13
ATOM     13  C   UNL d   1      54.784  33.477  55.428  0.00  0.00     0.002 C 
ATOM     14  C   UNL d   1      55.491  33.851  55.249  0.00  0.00     0.000 C 
ENDBRANCH  12  13
ENDBRANCH  11  12
ENDBRANCH   4  11
TORSDOF 4
ENDMDL
MODEL 6
REMARK VINA RESULT:      -4.8      9.810     10.604
REMARK  4 active torsions:
REMARK  status: ('A' for Active; 'I' for Inactive)
REMARK       I    between atoms: C_2  and  N_1 
REMARK    1  A    between atoms: C_3  and  N_1 
REMARK       I    between atoms: N_6  and  C_2 
REMARK    2  A    between atoms: C_9  and  N_6 
REMARK    3  A    between atoms: C_10  and  C_9 
REMARK    4  A    between atoms: C_11  and  C_10 
ROOT
ATOM      1  N   UNL d   1      45.434  29.312  58.376  0.00  0.00    -0.172 NA
ATOM      2  C   UNL d   1      44.985  29.421  59.059  0.00  0.00     0.370 C 
ATOM      3  O   UNL d   1      44.415  28.870  59.272  0.00  0.00    -0.242 OA
ATOM      4  N   UNL d   1      45.111  30.091  59.532  0.00  0.00    -0.189 NA
ENDROOT
BRANCH   1   5
ATOM      5  C   UNL d   1      45.307  28.642  57.904  0.00  0.00     0.167 A 
ATOM      6  N   UNL d   1      45.570  27.906  58.155  0.00  0.00    -0.225 NA
ATOM      7  C   UNL d   1      45.444  27.243  57.685  0.00  0.00     0.101 A 
ATOM      8  C   UNL d   1      45.053  27.314  56.960  0.00  0.00     0.021 A 
ATOM      9  C   UNL d   1      44.792  28.058  56.715  0.00  0.00     0.005 A 
ATOM     10  C   UNL d   1      44.917  28.719  57.182  0.00  0.00     0.039 A 
ENDBRANCH   1   5
BRANCH   4  11
ATOM     11  C   UNL d   1      44.662  30.200  60.215  0.00  0.00     0.104 C 
BRANCH  11  12
ATOM     12  C   UNL d   1      44.891  30.768  60.763  0.00  0.00     0.021 C 
BRANCH  12  13
ATOM     13  C   UNL d   1      44.314  31.202  61.169  0.00  0.00     0.002 C 
ATOM     14  C   UNL d   1      44.409  31.359  61.968  0.00  0.00     0.000 C 
ENDBRANCH  12  13
ENDBRANCH  11  12
ENDBRANCH   4  11
TORSDOF 4
ENDMDL
