MODEL 1
REMARK VINA RESULT:     -10.7      0.000      0.000
REMARK  1 active torsions:
REMARK  status: ('A' for Active; 'I' for Inactive)
REMARK       I    between atoms: C_3  and  N_1 
REMARK    1  A    between atoms: C_6  and  C_3 
ROOT
ATOM      1  N   UNL d   1      52.839  31.983  53.260  0.00  0.00    -0.175 N 
ATOM      2  N   UNL d   1      52.007  31.950  53.162  0.00  0.00    -0.057 NA
ATOM      3  C   UNL d   1      53.298  32.688  53.282  0.00  0.00     0.282 C 
ATOM      4  N   UNL d   1      51.787  31.196  53.170  0.00  0.00    -0.129 NA
ATOM      5  C   UNL d   1      53.113  31.207  53.328  0.00  0.00     0.107 A 
ATOM      6  C   UNL d   1      52.449  30.710  53.271  0.00  0.00     0.122 A 
ATOM      7  O   UNL d   1      54.126  32.631  53.384  0.00  0.00    -0.265 OA
ATOM      8  C   UNL d   1      53.878  30.881  53.434  0.00  0.00     0.021 A 
ATOM      9  C   UNL d   1      52.534  29.875  53.320  0.00  0.00     0.022 A 
ATOM     10  C   UNL d   1      53.964  30.052  53.482  0.00  0.00     0.002 A 
ATOM     11  C   UNL d   1      53.300  29.555  53.426  0.00  0.00     0.002 A 
ENDROOT
BRANCH   3  12
ATOM     12  C   UNL d   1      52.945  33.428  53.207  0.00  0.00     0.058 A 
ATOM     13  C   UNL d   1      53.044  34.001  53.779  0.00  0.00     0.005 A 
ATOM     14  C   UNL d   1      52.699  34.725  53.702  0.00  0.00     0.000 A 
ATOM     15  C   UNL d   1      53.506  33.809  54.427  0.00  0.00     0.000 A 
ATOM     16  C   UNL d   1      52.810  35.281  54.284  0.00  0.00     0.000 A 
ATOM     17  C   UNL d   1      52.233  34.898  53.036  0.00  0.00     0.000 A 
ATOM     18  C   UNL d   1      53.253  35.123  54.923  0.00  0.00     0.000 A 
ATOM     19  C   UNL d   1      53.603  34.387  54.999  0.00  0.00     0.000 A 
ATOM     20  C   UNL d   1      52.126  34.328  52.452  0.00  0.00     0.000 A 
ATOM     21  C   UNL d   1      52.487  33.584  52.540  0.00  0.00     0.005 A 
ENDBRANCH   3  12
TORSDOF 1
ENDMDL
MODEL 2
REMARK VINA RESULT:     -10.2      1.429      3.676
REMARK  1 active torsions:
REMARK  status: ('A' for Active; 'I' for Inactive)
REMARK       I    between atoms: C_3  and  N_1 
REMARK    1  A    between atoms: C_6  and  C_3 
ROOT
ATOM      1  N   UNL d   1      51.772  33.468  53.121  0.00  0.00    -0.175 N 
ATOM      2  N   UNL d   1      51.552  33.564  53.925  0.00  0.00    -0.057 NA
ATOM      3  C   UNL d   1      52.465  33.076  52.851  0.00  0.00     0.282 C 
ATOM      4  N   UNL d   1      50.872  33.958  53.949  0.00  0.00    -0.129 NA
ATOM      5  C   UNL d   1      51.189  33.826  52.658  0.00  0.00     0.107 A 
ATOM      6  C   UNL d   1      50.621  34.135  53.181  0.00  0.00     0.122 A 
ATOM      7  O   UNL d   1      52.610  33.024  52.029  0.00  0.00    -0.265 OA
ATOM      8  C   UNL d   1      51.094  33.914  51.830  0.00  0.00     0.021 A 
ATOM      9  C   UNL d   1      49.945  34.540  52.888  0.00  0.00     0.022 A 
ATOM     10  C   UNL d   1      50.424  34.315  51.537  0.00  0.00     0.002 A 
ATOM     11  C   UNL d   1      49.856  34.625  52.060  0.00  0.00     0.002 A 
ENDROOT
BRANCH   3  12
ATOM     12  C   UNL d   1      53.000  32.743  53.382  0.00  0.00     0.058 A 
ATOM     13  C   UNL d   1      53.129  31.938  53.400  0.00  0.00     0.005 A 
ATOM     14  C   UNL d   1      53.652  31.615  53.919  0.00  0.00     0.000 A 
ATOM     15  C   UNL d   1      52.704  31.478  52.871  0.00  0.00     0.000 A 
ATOM     16  C   UNL d   1      53.765  30.810  53.921  0.00  0.00     0.000 A 
ATOM     17  C   UNL d   1      54.072  32.100  54.447  0.00  0.00     0.000 A 
ATOM     18  C   UNL d   1      53.368  30.340  53.420  0.00  0.00     0.000 A 
ATOM     19  C   UNL d   1      52.836  30.670  52.892  0.00  0.00     0.000 A 
ATOM     20  C   UNL d   1      53.951  32.915  54.438  0.00  0.00     0.000 A 
ATOM     21  C   UNL d   1      53.408  33.239  53.899  0.00  0.00     0.005 A 
ENDBRANCH   3  12
TORSDOF 1
ENDMDL
MODEL 3
REMARK VINA RESULT:     -10.1      1.558      3.256
REMARK  1 active torsions:
REMARK  status: ('A' for Active; 'I' for Inactive)
REMARK       I    between atoms: C_3  and  N_1 
REMARK    1  A    between atoms: C_6  and  C_3 
ROOT
ATOM      1  N   UNL d   1      51.909  33.575  52.914  0.00  0.00    -0.175 N 
ATOM      2  N   UNL d   1      52.295  33.531  52.171  0.00  0.00    -0.057 NA
ATOM      3  C   UNL d   1      52.226  33.298  53.643  0.00  0.00     0.282 C 
ATOM      4  N   UNL d   1      51.822  33.846  51.629  0.00  0.00    -0.129 NA
ATOM      5  C   UNL d   1      51.175  33.934  52.794  0.00  0.00     0.107 A 
ATOM      6  C   UNL d   1      51.121  34.105  51.982  0.00  0.00     0.122 A 
ATOM      7  O   UNL d   1      51.772  33.380  54.341  0.00  0.00    -0.265 OA
ATOM      8  C   UNL d   1      50.545  34.130  53.311  0.00  0.00     0.021 A 
ATOM      9  C   UNL d   1      50.434  34.477  51.668  0.00  0.00     0.022 A 
ATOM     10  C   UNL d   1      49.864  34.499  53.002  0.00  0.00     0.002 A 
ATOM     11  C   UNL d   1      49.809  34.670  52.189  0.00  0.00     0.002 A 
ENDROOT
BRANCH   3  12
ATOM     12  C   UNL d   1      52.971  32.949  53.678  0.00  0.00     0.058 A 
ATOM     13  C   UNL d   1      53.561  33.264  54.146  0.00  0.00     0.005 A 
ATOM     14  C   UNL d   1      54.288  32.921  54.179  0.00  0.00     0.000 A 
ATOM     15  C   UNL d   1      53.380  33.939  54.575  0.00  0.00     0.000 A 
ATOM     16  C   UNL d   1      54.861  33.252  54.651  0.00  0.00     0.000 A 
ATOM     17  C   UNL d   1      54.450  32.237  53.735  0.00  0.00     0.000 A 
ATOM     18  C   UNL d   1      54.715  33.905  55.078  0.00  0.00     0.000 A 
ATOM     19  C   UNL d   1      53.974  34.252  55.042  0.00  0.00     0.000 A 
ATOM     20  C   UNL d   1      53.862  31.910  53.260  0.00  0.00     0.000 A 
ATOM     21  C   UNL d   1      53.115  32.271  53.232  0.00  0.00     0.005 A 
ENDBRANCH   3  12
TORSDOF 1
ENDMDL
MODEL 4
REMARK VINA RESULT:      -9.4      0.903      3.759
REMARK  1 active torsions:
REMARK  status: ('A' for Active; 'I' for Inactive)
REMARK       I    between atoms: C_3  and  N_1 
REMARK    1  A    between atoms: C_6  and  C_3 
ROOT
ATOM      1  N   UNL d   1      52.921  32.584  53.535  0.00  0.00    -0.175 N 
ATOM      2  N   UNL d   1      52.193  32.531  53.121  0.00  0.00    -0.057 NA
ATOM      3  C   UNL d   1      53.450  31.945  53.670  0.00  0.00     0.282 C 
ATOM      4  N   UNL d   1      51.862  33.244  53.113  0.00  0.00    -0.129 NA
ATOM      5  C   UNL d   1      53.014  33.368  53.777  0.00  0.00     0.107 A 
ATOM      6  C   UNL d   1      52.345  33.784  53.511  0.00  0.00     0.122 A 
ATOM      7  O   UNL d   1      54.158  32.084  54.093  0.00  0.00    -0.265 OA
ATOM      8  C   UNL d   1      53.616  33.764  54.205  0.00  0.00     0.021 A 
ATOM      9  C   UNL d   1      52.263  34.607  53.666  0.00  0.00     0.022 A 
ATOM     10  C   UNL d   1      53.536  34.580  54.360  0.00  0.00     0.002 A 
ATOM     11  C   UNL d   1      52.867  34.996  54.094  0.00  0.00     0.002 A 
ENDROOT
BRANCH   3  12
ATOM     12  C   UNL d   1      53.282  31.187  53.393  0.00  0.00     0.058 A 
ATOM     13  C   UNL d   1      53.267  30.548  53.899  0.00  0.00     0.005 A 
ATOM     14  C   UNL d   1      53.104  29.809  53.626  0.00  0.00     0.000 A 
ATOM     15  C   UNL d   1      53.425  30.692  54.690  0.00  0.00     0.000 A 
ATOM     16  C   UNL d   1      53.094  29.186  54.149  0.00  0.00     0.000 A 
ATOM     17  C   UNL d   1      52.946  29.685  52.820  0.00  0.00     0.000 A 
ATOM     18  C   UNL d   1      53.243  29.296  54.920  0.00  0.00     0.000 A 
ATOM     19  C   UNL d   1      53.409  30.049  55.196  0.00  0.00     0.000 A 
ATOM     20  C   UNL d   1      52.959  30.323  52.298  0.00  0.00     0.000 A 
ATOM     21  C   UNL d   1      53.129  31.082  52.590  0.00  0.00     0.005 A 
ENDBRANCH   3  12
TORSDOF 1
ENDMDL
MODEL 5
REMARK VINA RESULT:      -8.5      1.748      2.848
REMARK  1 active torsions:
REMARK  status: ('A' for Active; 'I' for Inactive)
REMARK       I    between atoms: C_3  and  N_1 
REMARK    1  A    between atoms: C_6  and  C_3 
ROOT
ATOM      1  N   UNL d   1      52.724  33.638  53.545  0.00  0.00    -0.175 N 
ATOM      2  N   UNL d   1      52.646  32.883  53.187  0.00  0.00    -0.057 NA
ATOM      3  C   UNL d   1      52.297  34.327  53.321  0.00  0.00     0.282 C 
ATOM      4  N   UNL d   1      53.135  32.387  53.550  0.00  0.00    -0.129 NA
ATOM      5  C   UNL d   1      53.287  33.573  54.145  0.00  0.00     0.107 A 
ATOM      6  C   UNL d   1      53.546  32.782  54.148  0.00  0.00     0.122 A 
ATOM      7  O   UNL d   1      52.436  35.043  53.732  0.00  0.00    -0.265 OA
ATOM      8  C   UNL d   1      53.602  34.124  54.693  0.00  0.00     0.021 A 
ATOM      9  C   UNL d   1      54.128  32.525  54.699  0.00  0.00     0.022 A 
ATOM     10  C   UNL d   1      54.179  33.870  55.240  0.00  0.00     0.002 A 
ATOM     11  C   UNL d   1      54.438  33.080  55.243  0.00  0.00     0.002 A 
ENDROOT
BRANCH   3  12
ATOM     12  C   UNL d   1      51.749  34.309  52.707  0.00  0.00     0.058 A 
ATOM     13  C   UNL d   1      50.963  34.486  52.839  0.00  0.00     0.005 A 
ATOM     14  C   UNL d   1      50.429  34.467  52.237  0.00  0.00     0.000 A 
ATOM     15  C   UNL d   1      50.746  34.681  53.605  0.00  0.00     0.000 A 
ATOM     16  C   UNL d   1      49.651  34.647  52.392  0.00  0.00     0.000 A 
ATOM     17  C   UNL d   1      50.671  34.266  51.468  0.00  0.00     0.000 A 
ATOM     18  C   UNL d   1      49.413  34.840  53.123  0.00  0.00     0.000 A 
ATOM     19  C   UNL d   1      49.958  34.858  53.734  0.00  0.00     0.000 A 
ATOM     20  C   UNL d   1      51.461  34.085  51.323  0.00  0.00     0.000 A 
ATOM     21  C   UNL d   1      52.005  34.107  51.950  0.00  0.00     0.005 A 
ENDBRANCH   3  12
TORSDOF 1
ENDMDL
