MODEL 1
REMARK VINA RESULT:      25.4      0.000      0.000
REMARK  4 active torsions:
REMARK  status: ('A' for Active; 'I' for Inactive)
REMARK       I    between atoms: N_2  and  C_1 
REMARK    1  A    between atoms: C_3  and  C_1 
REMARK    2  A    between atoms: C_7  and  N_2 
REMARK    3  A    between atoms: O_17  and  C_9 
REMARK    4  A    between atoms: C_18  and  O_17 
ROOT
ATOM      1  C   UNL d   1      13.137  12.490  -4.839  0.00  0.00     0.279 C 
ATOM      2  N   UNL d   1      13.179  11.780  -4.408  0.00  0.00    -0.208 NA
ATOM      3  O   UNL d   1      12.907  12.458  -5.630  0.00  0.00    -0.265 OA
ENDROOT
BRANCH   2   4
ATOM      4  C   UNL d   1      13.407  11.794  -3.616  0.00  0.00     0.085 A 
ATOM      5  C   UNL d   1      12.849  11.823  -3.026  0.00  0.00     0.021 A 
ATOM      6  C   UNL d   1      13.077  11.837  -2.234  0.00  0.00     0.026 A 
ATOM      7  C   UNL d   1      13.863  11.823  -2.031  0.00  0.00     0.100 A 
ATOM      8  C   UNL d   1      14.463  11.793  -2.633  0.00  0.00     0.026 A 
ATOM      9  C   UNL d   1      14.214  11.780  -3.419  0.00  0.00     0.021 A 
BRANCH   7  10
ATOM     10  O   UNL d   1      14.076  11.838  -1.234  0.00  0.00    -0.305 OA
BRANCH  10  11
ATOM     11  C   UNL d   1      14.631  12.368  -0.979  0.00  0.00     0.123 C 
ATOM     12  C   UNL d   1      14.629  12.604  -0.189  0.00  0.00     0.029 C 
ENDBRANCH  10  11
ENDBRANCH   7  10
ENDBRANCH   2   4
BRANCH   1  13
ATOM     13  C   UNL d   1      13.323  13.214  -4.476  0.00  0.00     0.058 A 
ATOM     14  C   UNL d   1      14.068  13.550  -4.590  0.00  0.00     0.006 A 
ATOM     15  C   UNL d   1      14.259  14.261  -4.237  0.00  0.00     0.021 A 
ATOM     16  C   UNL d   1      13.696  14.663  -3.750  0.00  0.00     0.103 A 
ATOM     17  C   UNL d   1      12.956  14.314  -3.646  0.00  0.00     0.021 A 
ATOM     18  N   UNL d   1      13.905  15.267  -3.470  0.00  0.00    -0.148 N 
ATOM     19  C   UNL d   1      12.769  13.590  -4.008  0.00  0.00     0.006 A 
ENDBRANCH   1  13
TORSDOF 4
ENDMDL
MODEL 2
REMARK VINA RESULT:      28.1      1.828      3.477
REMARK  4 active torsions:
REMARK  status: ('A' for Active; 'I' for Inactive)
REMARK       I    between atoms: N_2  and  C_1 
REMARK    1  A    between atoms: C_3  and  C_1 
REMARK    2  A    between atoms: C_7  and  N_2 
REMARK    3  A    between atoms: O_17  and  C_9 
REMARK    4  A    between atoms: C_18  and  O_17 
ROOT
ATOM      1  C   UNL d   1      15.628  12.599  -0.535  0.00  0.00     0.279 C 
ATOM      2  N   UNL d   1      15.373  11.921  -0.942  0.00  0.00    -0.208 NA
ATOM      3  O   UNL d   1      16.264  12.531  -0.015  0.00  0.00    -0.265 OA
ENDROOT
BRANCH   2   4
ATOM      4  C   UNL d   1      14.737  11.972  -1.465  0.00  0.00     0.085 A 
ATOM      5  C   UNL d   1      14.854  12.208  -2.233  0.00  0.00     0.021 A 
ATOM      6  C   UNL d   1      14.219  12.259  -2.757  0.00  0.00     0.026 A 
ATOM      7  C   UNL d   1      13.467  12.074  -2.512  0.00  0.00     0.100 A 
ATOM      8  C   UNL d   1      13.323  11.824  -1.713  0.00  0.00     0.026 A 
ATOM      9  C   UNL d   1      13.973  11.780  -1.205  0.00  0.00     0.021 A 
BRANCH   7  10
ATOM     10  O   UNL d   1      12.842  12.130  -3.048  0.00  0.00    -0.305 OA
BRANCH  10  11
ATOM     11  C   UNL d   1      12.914  11.793  -3.780  0.00  0.00     0.123 C 
ATOM     12  C   UNL d   1      12.778  12.254  -4.450  0.00  0.00     0.029 C 
ENDBRANCH  10  11
ENDBRANCH   7  10
ENDBRANCH   2   4
BRANCH   1  13
ATOM     13  C   UNL d   1      15.247  13.329  -0.652  0.00  0.00     0.058 A 
ATOM     14  C   UNL d   1      15.380  13.754  -1.346  0.00  0.00     0.006 A 
ATOM     15  C   UNL d   1      15.009  14.471  -1.467  0.00  0.00     0.021 A 
ATOM     16  C   UNL d   1      14.484  14.788  -0.885  0.00  0.00     0.103 A 
ATOM     17  C   UNL d   1      14.362  14.350  -0.196  0.00  0.00     0.021 A 
ATOM     18  N   UNL d   1      14.191  15.403  -1.033  0.00  0.00    -0.148 N 
ATOM     19  C   UNL d   1      14.742  13.621  -0.079  0.00  0.00     0.006 A 
ENDBRANCH   1  13
TORSDOF 4
ENDMDL
