MODEL 1
REMARK VINA RESULT:      -2.9      0.000      0.000
REMARK  4 active torsions:
REMARK  status: ('A' for Active; 'I' for Inactive)
REMARK    1  A    between atoms: N_6  and  S_1 
REMARK    2  A    between atoms: C_10  and  S_1 
REMARK    3  A    between atoms: S_2  and  C_11 
REMARK    4  A    between atoms: N_7  and  S_2 
REMARK       I    between atoms: C_14  and  N_6 
REMARK       I    between atoms: C_15  and  N_7 
ROOT
ATOM      1  C   UNL d   1      33.207  20.425 -21.382  0.00  0.00     0.040 A 
ATOM      2  C   UNL d   1      33.192  19.387 -22.213  0.00  0.00     0.040 A 
ATOM      3  C   UNL d   1      33.214  19.608 -21.416  0.00  0.00     0.196 A 
ATOM      4  C   UNL d   1      33.171  20.076 -22.659  0.00  0.00     0.003 A 
ATOM      5  C   UNL d   1      33.180  20.716 -22.154  0.00  0.00     0.003 A 
ATOM      6  C   UNL d   1      33.210  21.767 -20.877  0.00  0.00     0.105 A 
ATOM      7  C   UNL d   1      33.162  18.611 -23.396  0.00  0.00     0.105 A 
ATOM      8  C   UNL d   1      33.222  20.961 -20.737  0.00  0.00     0.016 A 
ATOM      9  C   UNL d   1      33.187  18.646 -22.580  0.00  0.00     0.016 A 
ATOM     10  C   UNL d   1      33.145  20.032 -23.482  0.00  0.00     0.001 A 
ATOM     11  C   UNL d   1      33.168  21.535 -22.291  0.00  0.00     0.001 A 
ATOM     12  O   UNL d   1      33.240  19.086 -20.775  0.00  0.00    -0.287 OA
ATOM     13  C   UNL d   1      33.141  19.295 -23.856  0.00  0.00     0.013 A 
ATOM     14  C   UNL d   1      33.183  22.063 -21.650  0.00  0.00     0.013 A 
ENDROOT
BRANCH   6  15
ATOM     15  S   UNL d   1      33.225  22.297 -20.246  0.00  0.00     0.288 S 
ATOM     16  O   UNL d   1      33.214  22.925 -20.784  0.00  0.00    -0.198 OA
ATOM     17  O   UNL d   1      33.236  21.676 -19.698  0.00  0.00    -0.198 OA
BRANCH  15  18
ATOM     18  N   UNL d   1      33.239  22.851 -19.613  0.00  0.00    -0.118 NA
ATOM     19  C   UNL d   1      32.530  23.166 -19.330  0.00  0.00     0.289 C 
ATOM     20  O   UNL d   1      31.806  22.935 -19.670  0.00  0.00    -0.265 OA
ATOM     21  C   UNL d   1      32.537  23.702 -18.719  0.00  0.00     0.068 C 
ENDBRANCH  15  18
ENDBRANCH   6  15
BRANCH   7  22
ATOM     22  S   UNL d   1      33.158  17.870 -23.763  0.00  0.00     0.288 S 
ATOM     23  O   UNL d   1      33.166  17.511 -23.020  0.00  0.00    -0.198 OA
ATOM     24  O   UNL d   1      33.150  18.229 -24.508  0.00  0.00    -0.198 OA
BRANCH  22  25
ATOM     25  N   UNL d   1      33.153  17.159 -24.191  0.00  0.00    -0.118 NA
ATOM     26  C   UNL d   1      32.452  16.740 -24.281  0.00  0.00     0.289 C 
ATOM     27  O   UNL d   1      32.451  16.031 -24.710  0.00  0.00    -0.265 OA
ATOM     28  C   UNL d   1      31.755  17.020 -23.950  0.00  0.00     0.068 C 
ENDBRANCH  22  25
ENDBRANCH   7  22
TORSDOF 4
ENDMDL
MODEL 2
REMARK VINA RESULT:      -2.3      0.556      5.430
REMARK  4 active torsions:
REMARK  status: ('A' for Active; 'I' for Inactive)
REMARK    1  A    between atoms: N_6  and  S_1 
REMARK    2  A    between atoms: C_10  and  S_1 
REMARK    3  A    between atoms: S_2  and  C_11 
REMARK    4  A    between atoms: N_7  and  S_2 
REMARK       I    between atoms: C_14  and  N_6 
REMARK       I    between atoms: C_15  and  N_7 
ROOT
ATOM      1  C   UNL d   1      32.997  19.304 -22.299  0.00  0.00     0.040 A 
ATOM      2  C   UNL d   1      33.072  20.406 -21.561  0.00  0.00     0.040 A 
ATOM      3  C   UNL d   1      33.080  19.580 -21.534  0.00  0.00     0.196 A 
ATOM      4  C   UNL d   1      32.983  20.627 -22.347  0.00  0.00     0.003 A 
ATOM      5  C   UNL d   1      32.937  19.954 -22.804  0.00  0.00     0.003 A 
ATOM      6  C   UNL d   1      32.879  18.422 -23.423  0.00  0.00     0.105 A 
ATOM      7  C   UNL d   1      33.106  21.767 -21.174  0.00  0.00     0.105 A 
ATOM      8  C   UNL d   1      32.967  18.528 -22.616  0.00  0.00     0.016 A 
ATOM      9  C   UNL d   1      33.134  20.978 -20.966  0.00  0.00     0.016 A 
ATOM     10  C   UNL d   1      32.956  21.426 -22.548  0.00  0.00     0.001 A 
ATOM     11  C   UNL d   1      32.847  19.840 -23.621  0.00  0.00     0.001 A 
ATOM     12  O   UNL d   1      33.159  19.123 -20.848  0.00  0.00    -0.287 OA
ATOM     13  C   UNL d   1      33.017  22.002 -21.960  0.00  0.00     0.013 A 
ATOM     14  C   UNL d   1      32.818  19.071 -23.932  0.00  0.00     0.013 A 
ENDROOT
BRANCH   6  15
ATOM     15  S   UNL d   1      32.849  17.660 -23.739  0.00  0.00     0.288 S 
ATOM     16  O   UNL d   1      32.890  17.350 -22.974  0.00  0.00    -0.198 OA
ATOM     17  O   UNL d   1      32.807  17.960 -24.511  0.00  0.00    -0.198 OA
BRANCH  15  18
ATOM     18  N   UNL d   1      32.819  16.877 -24.045  0.00  0.00    -0.118 NA
ATOM     19  C   UNL d   1      32.094  16.557 -24.277  0.00  0.00     0.289 C 
ATOM     20  O   UNL d   1      31.397  17.008 -24.208  0.00  0.00    -0.265 OA
ATOM     21  C   UNL d   1      32.058  15.801 -24.574  0.00  0.00     0.068 C 
ENDBRANCH  15  18
ENDBRANCH   6  15
BRANCH   7  22
ATOM     22  S   UNL d   1      33.168  22.339 -20.580  0.00  0.00     0.288 S 
ATOM     23  O   UNL d   1      33.095  22.930 -21.152  0.00  0.00    -0.198 OA
ATOM     24  O   UNL d   1      33.241  21.748 -20.007  0.00  0.00    -0.198 OA
BRANCH  22  25
ATOM     25  N   UNL d   1      33.236  22.861 -19.939  0.00  0.00    -0.118 NA
ATOM     26  C   UNL d   1      32.560  23.181 -19.597  0.00  0.00     0.289 C 
ATOM     27  O   UNL d   1      32.631  23.702 -18.957  0.00  0.00    -0.265 OA
ATOM     28  C   UNL d   1      31.816  22.986 -19.886  0.00  0.00     0.068 C 
ENDBRANCH  22  25
ENDBRANCH   7  22
TORSDOF 4
ENDMDL
