MODEL 1
REMARK VINA RESULT:      -4.3      0.000      0.000
REMARK  5 active torsions:
REMARK  status: ('A' for Active; 'I' for Inactive)
REMARK    1  A    between atoms: C_3  and  C_1 
REMARK    2  A    between atoms: S_2  and  C_3 
REMARK    3  A    between atoms: C_7  and  S_2 
REMARK    4  A    between atoms: C_9  and  C_3 
REMARK    5  A    between atoms: N_8  and  C_4 
ROOT
ATOM      1  C   UNL d   1     -39.644  15.210  20.714  0.00  0.00     0.128 A 
ATOM      2  C   UNL d   1     -40.171  14.859  21.242  0.00  0.00     0.166 A 
ATOM      3  N   UNL d   1     -38.956  15.562  20.992  0.00  0.00    -0.240 NA
ATOM      4  N   UNL d   1     -40.006  14.863  22.056  0.00  0.00    -0.225 NA
ATOM      5  C   UNL d   1     -38.796  15.564  21.795  0.00  0.00     0.099 A 
ATOM      6  C   UNL d   1     -39.319  15.216  22.324  0.00  0.00     0.101 A 
ATOM      7  C   UNL d   1     -39.150  15.221  23.136  0.00  0.00     0.021 A 
ATOM      8  C   UNL d   1     -38.104  15.918  22.072  0.00  0.00     0.021 A 
ATOM      9  C   UNL d   1     -37.940  15.922  22.875  0.00  0.00     0.002 A 
ATOM     10  C   UNL d   1     -38.462  15.574  23.405  0.00  0.00     0.002 A 
ENDROOT
BRANCH   1  11
ATOM     11  C   UNL d   1     -39.806  15.208  19.908  0.00  0.00     0.129 C 
BRANCH  11  12
ATOM     12  S   UNL d   1     -39.134  15.022  19.351  0.00  0.00     0.213 S 
ATOM     13  O   UNL d   1     -39.132  15.846  19.444  0.00  0.00    -0.217 OA
ATOM     14  O   UNL d   1     -38.654  15.708  19.047  0.00  0.00    -0.217 OA
BRANCH  12  15
ATOM     15  C   UNL d   1     -38.836  14.313  19.032  0.00  0.00     0.088 A 
ATOM     16  C   UNL d   1     -39.086  14.058  18.289  0.00  0.00     0.011 A 
ATOM     17  C   UNL d   1     -38.791  13.353  17.968  0.00  0.00     0.001 A 
ATOM     18  C   UNL d   1     -39.040  13.097  17.226  0.00  0.00     0.000 C 
ATOM     19  C   UNL d   1     -38.243  12.907  18.401  0.00  0.00     0.000 A 
ATOM     20  C   UNL d   1     -37.992  13.167  19.150  0.00  0.00     0.001 A 
ATOM     21  C   UNL d   1     -37.946  12.208  18.090  0.00  0.00     0.000 C 
ATOM     22  C   UNL d   1     -38.290  13.870  19.463  0.00  0.00     0.011 A 
ENDBRANCH  12  15
ENDBRANCH  11  12
BRANCH  11  23
ATOM     23  C   UNL d   1     -40.543  15.361  19.489  0.00  0.00     0.135 C 
ATOM     24  N   UNL d   1     -40.652  15.765  18.705  0.00  0.00    -0.146 N 
ENDBRANCH  11  23
ENDBRANCH   1  11
BRANCH   2  25
ATOM     25  N   UNL d   1     -40.866  14.505  20.953  0.00  0.00    -0.288 N 
ATOM     26  C   UNL d   1     -40.962  13.706  20.761  0.00  0.00     0.082 A 
ATOM     27  C   UNL d   1     -41.749  13.600  20.493  0.00  0.00     0.021 A 
ATOM     28  C   UNL d   1     -42.135  14.340  20.521  0.00  0.00     0.021 A 
ATOM     29  C   UNL d   1     -41.586  14.904  20.807  0.00  0.00     0.082 A 
ENDBRANCH   2  25
TORSDOF 5
ENDMDL
MODEL 2
REMARK VINA RESULT:      -3.2      8.055     10.104
REMARK  5 active torsions:
REMARK  status: ('A' for Active; 'I' for Inactive)
REMARK    1  A    between atoms: C_3  and  C_1 
REMARK    2  A    between atoms: S_2  and  C_3 
REMARK    3  A    between atoms: C_7  and  S_2 
REMARK    4  A    between atoms: C_9  and  C_3 
REMARK    5  A    between atoms: N_8  and  C_4 
ROOT
ATOM      1  C   UNL d   1     -49.413  13.118  22.510  0.00  0.00     0.128 A 
ATOM      2  C   UNL d   1     -49.991  12.991  23.085  0.00  0.00     0.166 A 
ATOM      3  N   UNL d   1     -49.169  13.882  22.333  0.00  0.00    -0.240 NA
ATOM      4  N   UNL d   1     -50.327  13.637  23.483  0.00  0.00    -0.225 NA
ATOM      5  C   UNL d   1     -49.502  14.517  22.729  0.00  0.00     0.099 A 
ATOM      6  C   UNL d   1     -50.078  14.395  23.301  0.00  0.00     0.101 A 
ATOM      7  C   UNL d   1     -50.411  15.042  23.698  0.00  0.00     0.021 A 
ATOM      8  C   UNL d   1     -49.256  15.283  22.549  0.00  0.00     0.021 A 
ATOM      9  C   UNL d   1     -49.587  15.922  22.943  0.00  0.00     0.002 A 
ATOM     10  C   UNL d   1     -50.163  15.801  23.515  0.00  0.00     0.002 A 
ENDROOT
BRANCH   1  11
ATOM     11  C   UNL d   1     -49.079  12.480  22.114  0.00  0.00     0.129 C 
BRANCH  11  12
ATOM     12  S   UNL d   1     -48.234  12.559  21.837  0.00  0.00     0.213 S 
ATOM     13  O   UNL d   1     -48.706  12.656  21.162  0.00  0.00    -0.217 OA
ATOM     14  O   UNL d   1     -48.102  12.712  20.970  0.00  0.00    -0.217 OA
BRANCH  12  15
ATOM     15  C   UNL d   1     -47.500  12.521  22.227  0.00  0.00     0.088 A 
ATOM     16  C   UNL d   1     -47.324  11.879  22.713  0.00  0.00     0.011 A 
ATOM     17  C   UNL d   1     -46.593  11.837  23.102  0.00  0.00     0.001 A 
ATOM     18  C   UNL d   1     -46.416  11.196  23.588  0.00  0.00     0.000 C 
ATOM     19  C   UNL d   1     -46.042  12.447  22.998  0.00  0.00     0.000 A 
ATOM     20  C   UNL d   1     -46.222  13.093  22.506  0.00  0.00     0.001 A 
ATOM     21  C   UNL d   1     -45.316  12.413  23.379  0.00  0.00     0.000 C 
ATOM     22  C   UNL d   1     -46.951  13.128  22.122  0.00  0.00     0.011 A 
ENDBRANCH  12  15
ENDBRANCH  11  12
BRANCH  11  23
ATOM     23  C   UNL d   1     -49.418  11.714  21.910  0.00  0.00     0.135 C 
ATOM     24  N   UNL d   1     -49.557  11.377  21.099  0.00  0.00    -0.146 N 
ENDBRANCH  11  23
ENDBRANCH   1  11
BRANCH   2  25
ATOM     25  N   UNL d   1     -50.233  12.213  23.258  0.00  0.00    -0.288 N 
ATOM     26  C   UNL d   1     -50.973  11.884  23.091  0.00  0.00     0.082 A 
ATOM     27  C   UNL d   1     -50.967  11.091  23.362  0.00  0.00     0.021 A 
ATOM     28  C   UNL d   1     -50.218  10.937  23.698  0.00  0.00     0.021 A 
ATOM     29  C   UNL d   1     -49.760  11.635  23.633  0.00  0.00     0.082 A 
ENDBRANCH   2  25
TORSDOF 5
ENDMDL
MODEL 3
REMARK VINA RESULT:      -2.8      1.616      4.280
REMARK  5 active torsions:
REMARK  status: ('A' for Active; 'I' for Inactive)
REMARK    1  A    between atoms: C_3  and  C_1 
REMARK    2  A    between atoms: S_2  and  C_3 
REMARK    3  A    between atoms: C_7  and  S_2 
REMARK    4  A    between atoms: C_9  and  C_3 
REMARK    5  A    between atoms: N_8  and  C_4 
ROOT
ATOM      1  C   UNL d   1     -40.206  15.051  18.855  0.00  0.00     0.128 A 
ATOM      2  C   UNL d   1     -39.764  14.584  18.340  0.00  0.00     0.166 A 
ATOM      3  N   UNL d   1     -40.835  15.497  18.570  0.00  0.00    -0.240 NA
ATOM      4  N   UNL d   1     -39.955  14.563  17.532  0.00  0.00    -0.225 NA
ATOM      5  C   UNL d   1     -41.020  15.474  17.773  0.00  0.00     0.099 A 
ATOM      6  C   UNL d   1     -40.582  15.009  17.256  0.00  0.00     0.101 A 
ATOM      7  C   UNL d   1     -40.776  14.992  16.451  0.00  0.00     0.021 A 
ATOM      8  C   UNL d   1     -41.652  15.922  17.489  0.00  0.00     0.021 A 
ATOM      9  C   UNL d   1     -41.841  15.902  16.691  0.00  0.00     0.002 A 
ATOM     10  C   UNL d   1     -41.404  15.439  16.174  0.00  0.00     0.002 A 
ENDROOT
BRANCH   1  11
ATOM     11  C   UNL d   1     -40.019  15.073  19.655  0.00  0.00     0.129 C 
BRANCH  11  12
ATOM     12  S   UNL d   1     -40.694  15.068  20.239  0.00  0.00     0.213 S 
ATOM     13  O   UNL d   1     -40.504  15.866  20.116  0.00  0.00    -0.217 OA
ATOM     14  O   UNL d   1     -40.986  15.857  20.532  0.00  0.00    -0.217 OA
BRANCH  12  15
ATOM     15  C   UNL d   1     -41.139  14.460  20.593  0.00  0.00     0.088 A 
ATOM     16  C   UNL d   1     -40.855  14.081  21.268  0.00  0.00     0.011 A 
ATOM     17  C   UNL d   1     -41.295  13.475  21.623  0.00  0.00     0.001 A 
ATOM     18  C   UNL d   1     -41.013  13.095  22.297  0.00  0.00     0.000 C 
ATOM     19  C   UNL d   1     -42.023  13.254  21.293  0.00  0.00     0.000 A 
ATOM     20  C   UNL d   1     -42.307  13.638  20.613  0.00  0.00     0.001 A 
ATOM     21  C   UNL d   1     -42.464  12.655  21.639  0.00  0.00     0.000 C 
ATOM     22  C   UNL d   1     -41.863  14.241  20.265  0.00  0.00     0.011 A 
ENDBRANCH  12  15
ENDBRANCH  11  12
BRANCH  11  23
ATOM     23  C   UNL d   1     -39.251  15.101  20.045  0.00  0.00     0.135 C 
ATOM     24  N   UNL d   1     -38.860  15.800  20.431  0.00  0.00    -0.146 N 
ENDBRANCH  11  23
ENDBRANCH   1  11
BRANCH   2  25
ATOM     25  N   UNL d   1     -39.128  14.136  18.637  0.00  0.00    -0.288 N 
ATOM     26  C   UNL d   1     -39.085  13.310  18.664  0.00  0.00     0.082 A 
ATOM     27  C   UNL d   1     -38.348  13.104  19.006  0.00  0.00     0.021 A 
ATOM     28  C   UNL d   1     -37.940  13.809  19.187  0.00  0.00     0.021 A 
ATOM     29  C   UNL d   1     -38.424  14.452  18.958  0.00  0.00     0.082 A 
ENDBRANCH   2  25
TORSDOF 5
ENDMDL
MODEL 4
REMARK VINA RESULT:      -2.2      1.768      3.828
REMARK  5 active torsions:
REMARK  status: ('A' for Active; 'I' for Inactive)
REMARK    1  A    between atoms: C_3  and  C_1 
REMARK    2  A    between atoms: S_2  and  C_3 
REMARK    3  A    between atoms: C_7  and  S_2 
REMARK    4  A    between atoms: C_9  and  C_3 
REMARK    5  A    between atoms: N_8  and  C_4 
ROOT
ATOM      1  C   UNL d   1     -38.724  14.237  18.621  0.00  0.00     0.128 A 
ATOM      2  C   UNL d   1     -38.814  13.717  19.254  0.00  0.00     0.166 A 
ATOM      3  N   UNL d   1     -38.489  13.955  17.886  0.00  0.00    -0.240 NA
ATOM      4  N   UNL d   1     -38.667  12.907  19.149  0.00  0.00    -0.225 NA
ATOM      5  C   UNL d   1     -38.344  13.155  17.786  0.00  0.00     0.099 A 
ATOM      6  C   UNL d   1     -38.433  12.634  18.414  0.00  0.00     0.101 A 
ATOM      7  C   UNL d   1     -38.286  11.826  18.305  0.00  0.00     0.021 A 
ATOM      8  C   UNL d   1     -38.108  12.874  17.047  0.00  0.00     0.021 A 
ATOM      9  C   UNL d   1     -37.963  12.074  16.942  0.00  0.00     0.002 A 
ATOM     10  C   UNL d   1     -38.051  11.552  17.569  0.00  0.00     0.002 A 
ENDROOT
BRANCH   1  11
ATOM     11  C   UNL d   1     -38.869  15.040  18.723  0.00  0.00     0.129 C 
BRANCH  11  12
ATOM     12  S   UNL d   1     -39.234  15.486  18.041  0.00  0.00     0.213 S 
ATOM     13  O   UNL d   1     -38.415  15.603  17.979  0.00  0.00    -0.217 OA
ATOM     14  O   UNL d   1     -38.680  15.919  17.494  0.00  0.00    -0.217 OA
BRANCH  12  15
ATOM     15  C   UNL d   1     -40.018  15.595  17.784  0.00  0.00     0.088 A 
ATOM     16  C   UNL d   1     -40.198  15.555  16.981  0.00  0.00     0.011 A 
ATOM     17  C   UNL d   1     -40.978  15.664  16.722  0.00  0.00     0.001 A 
ATOM     18  C   UNL d   1     -41.159  15.624  15.919  0.00  0.00     0.000 C 
ATOM     19  C   UNL d   1     -41.574  15.813  17.278  0.00  0.00     0.000 A 
ATOM     20  C   UNL d   1     -41.390  15.853  18.087  0.00  0.00     0.001 A 
ATOM     21  C   UNL d   1     -42.348  15.922  17.029  0.00  0.00     0.000 C 
ATOM     22  C   UNL d   1     -40.611  15.744  18.338  0.00  0.00     0.011 A 
ENDBRANCH  12  15
ENDBRANCH  11  12
BRANCH  11  23
ATOM     23  C   UNL d   1     -38.724  15.549  19.404  0.00  0.00     0.135 C 
ATOM     24  N   UNL d   1     -37.940  15.813  19.731  0.00  0.00    -0.146 N 
ENDBRANCH  11  23
ENDBRANCH   1  11
BRANCH   2  25
ATOM     25  N   UNL d   1     -39.053  14.012  19.995  0.00  0.00    -0.288 N 
ATOM     26  C   UNL d   1     -38.572  14.407  20.540  0.00  0.00     0.082 A 
ATOM     27  C   UNL d   1     -39.045  14.601  21.205  0.00  0.00     0.021 A 
ATOM     28  C   UNL d   1     -39.819  14.321  21.063  0.00  0.00     0.021 A 
ATOM     29  C   UNL d   1     -39.825  13.954  20.310  0.00  0.00     0.082 A 
ENDBRANCH   2  25
TORSDOF 5
ENDMDL
MODEL 5
REMARK VINA RESULT:      -1.6      6.733      8.824
REMARK  5 active torsions:
REMARK  status: ('A' for Active; 'I' for Inactive)
REMARK    1  A    between atoms: C_3  and  C_1 
REMARK    2  A    between atoms: S_2  and  C_3 
REMARK    3  A    between atoms: C_7  and  S_2 
REMARK    4  A    between atoms: C_9  and  C_3 
REMARK    5  A    between atoms: N_8  and  C_4 
ROOT
ATOM      1  C   UNL d   1     -48.112  13.425  22.719  0.00  0.00     0.128 A 
ATOM      2  C   UNL d   1     -48.682  13.225  22.157  0.00  0.00     0.166 A 
ATOM      3  N   UNL d   1     -48.150  14.148  23.106  0.00  0.00    -0.240 NA
ATOM      4  N   UNL d   1     -49.295  13.757  21.984  0.00  0.00    -0.225 NA
ATOM      5  C   UNL d   1     -48.756  14.670  22.933  0.00  0.00     0.099 A 
ATOM      6  C   UNL d   1     -49.326  14.476  22.374  0.00  0.00     0.101 A 
ATOM      7  C   UNL d   1     -49.937  15.009  22.203  0.00  0.00     0.021 A 
ATOM      8  C   UNL d   1     -48.793  15.396  23.323  0.00  0.00     0.021 A 
ATOM      9  C   UNL d   1     -49.398  15.922  23.152  0.00  0.00     0.002 A 
ATOM     10  C   UNL d   1     -49.968  15.729  22.594  0.00  0.00     0.002 A 
ENDROOT
BRANCH   1  11
ATOM     11  C   UNL d   1     -47.504  12.899  22.892  0.00  0.00     0.129 C 
BRANCH  11  12
ATOM     12  S   UNL d   1     -46.684  13.235  23.002  0.00  0.00     0.213 S 
ATOM     13  O   UNL d   1     -47.143  13.542  23.622  0.00  0.00    -0.217 OA
ATOM     14  O   UNL d   1     -46.556  13.779  23.695  0.00  0.00    -0.217 OA
BRANCH  12  15
ATOM     15  C   UNL d   1     -45.972  13.151  22.580  0.00  0.00     0.088 A 
ATOM     16  C   UNL d   1     -45.456  12.534  22.760  0.00  0.00     0.011 A 
ATOM     17  C   UNL d   1     -44.745  12.448  22.342  0.00  0.00     0.001 A 
ATOM     18  C   UNL d   1     -44.230  11.831  22.521  0.00  0.00     0.000 C 
ATOM     19  C   UNL d   1     -44.558  12.988  21.743  0.00  0.00     0.000 A 
ATOM     20  C   UNL d   1     -45.080  13.610  21.563  0.00  0.00     0.001 A 
ATOM     21  C   UNL d   1     -43.857  12.910  21.325  0.00  0.00     0.000 C 
ATOM     22  C   UNL d   1     -45.786  13.690  21.983  0.00  0.00     0.011 A 
ENDBRANCH  12  15
ENDBRANCH  11  12
BRANCH  11  23
ATOM     23  C   UNL d   1     -47.521  12.043  22.991  0.00  0.00     0.135 C 
ATOM     24  N   UNL d   1     -47.262  11.570  23.698  0.00  0.00    -0.146 N 
ENDBRANCH  11  23
ENDBRANCH   1  11
BRANCH   2  25
ATOM     25  N   UNL d   1     -48.636  12.491  21.769  0.00  0.00    -0.288 N 
ATOM     26  C   UNL d   1     -48.370  12.363  20.996  0.00  0.00     0.082 A 
ATOM     27  C   UNL d   1     -48.420  11.541  20.841  0.00  0.00     0.021 A 
ATOM     28  C   UNL d   1     -48.719  11.166  21.524  0.00  0.00     0.021 A 
ATOM     29  C   UNL d   1     -48.854  11.756  22.103  0.00  0.00     0.082 A 
ENDBRANCH   2  25
TORSDOF 5
ENDMDL
