MODEL 1
REMARK VINA RESULT:      98.3      0.000      0.000
REMARK  6 active torsions:
REMARK  status: ('A' for Active; 'I' for Inactive)
REMARK    1  A    between atoms: N_3  and  C_1 
REMARK    2  A    between atoms: C_5  and  C_2 
REMARK    3  A    between atoms: C_7  and  C_5 
REMARK    4  A    between atoms: C_8  and  C_5 
REMARK    5  A    between atoms: O_15  and  C_7 
REMARK    6  A    between atoms: C_19  and  O_15 
ROOT
ATOM      1  C   UNL d   1     -50.704  26.670  35.544  0.00  0.00     0.166 A 
ATOM      2  C   UNL d   1     -50.159  27.285  35.623  0.00  0.00     0.122 A 
ATOM      3  N   UNL d   1     -51.100  26.373  36.209  0.00  0.00    -0.225 NA
ATOM      4  N   UNL d   1     -50.011  27.604  36.372  0.00  0.00    -0.241 NA
ATOM      5  C   UNL d   1     -50.946  26.698  36.955  0.00  0.00     0.101 A 
ATOM      6  C   UNL d   1     -50.404  27.310  37.034  0.00  0.00     0.099 A 
ATOM      7  C   UNL d   1     -51.338  26.404  37.609  0.00  0.00     0.021 A 
ATOM      8  C   UNL d   1     -50.254  27.630  37.779  0.00  0.00     0.021 A 
ATOM      9  C   UNL d   1     -50.645  27.337  38.437  0.00  0.00     0.002 A 
ATOM     10  C   UNL d   1     -51.190  26.722  38.358  0.00  0.00     0.002 A 
ENDROOT
BRANCH   2  11
ATOM     11  C   UNL d   1     -49.763  27.582  34.957  0.00  0.00     0.105 C 
BRANCH  11  12
ATOM     12  C   UNL d   1     -48.970  27.803  35.013  0.00  0.00     0.303 C 
ATOM     13  O   UNL d   1     -48.380  27.234  34.932  0.00  0.00    -0.259 OA
BRANCH  12  14
ATOM     14  O   UNL d   1     -48.770  28.587  35.149  0.00  0.00    -0.273 OA
BRANCH  14  15
ATOM     15  C   UNL d   1     -48.205  29.151  35.341  0.00  0.00     0.103 A 
ATOM     16  C   UNL d   1     -47.836  29.118  36.078  0.00  0.00     0.025 A 
ATOM     17  C   UNL d   1     -47.269  29.682  36.273  0.00  0.00     0.002 A 
ATOM     18  C   UNL d   1     -47.076  30.269  35.739  0.00  0.00     0.000 A 
ATOM     19  C   UNL d   1     -47.442  30.302  35.010  0.00  0.00     0.002 A 
ATOM     20  C   UNL d   1     -48.013  29.737  34.806  0.00  0.00     0.025 A 
ENDBRANCH  14  15
ENDBRANCH  12  14
ENDBRANCH  11  12
BRANCH  11  21
ATOM     21  C   UNL d   1     -50.160  27.660  34.231  0.00  0.00     0.129 C 
ATOM     22  N   UNL d   1     -49.897  28.283  33.562  0.00  0.00    -0.146 N 
ENDBRANCH  11  21
ENDBRANCH   2  11
BRANCH   1  23
ATOM     23  N   UNL d   1     -50.857  26.347  34.798  0.00  0.00    -0.284 N 
ATOM     24  C   UNL d   1     -50.288  25.870  34.427  0.00  0.00     0.106 A 
ATOM     25  C   UNL d   1     -50.447  25.551  33.685  0.00  0.00     0.118 A 
ATOM     26  C   UNL d   1     -49.876  25.075  33.318  0.00  0.00     0.028 C 
ATOM     27  O   UNL d   1     -51.163  25.698  33.306  0.00  0.00    -0.304 OA
ATOM     28  C   UNL d   1     -51.733  26.175  33.677  0.00  0.00     0.118 A 
ATOM     29  C   UNL d   1     -51.585  26.504  34.427  0.00  0.00     0.106 A 
ATOM     30  C   UNL d   1     -52.460  26.332  33.306  0.00  0.00     0.028 C 
ENDBRANCH   1  23
TORSDOF 6
ENDMDL
MODEL 2
REMARK VINA RESULT:     100.6      2.389      5.436
REMARK  6 active torsions:
REMARK  status: ('A' for Active; 'I' for Inactive)
REMARK    1  A    between atoms: N_3  and  C_1 
REMARK    2  A    between atoms: C_5  and  C_2 
REMARK    3  A    between atoms: C_7  and  C_5 
REMARK    4  A    between atoms: C_8  and  C_5 
REMARK    5  A    between atoms: O_15  and  C_7 
REMARK    6  A    between atoms: C_19  and  O_15 
ROOT
ATOM      1  C   UNL d   1     -47.697  30.841  35.319  0.00  0.00     0.166 A 
ATOM      2  C   UNL d   1     -48.003  30.493  34.636  0.00  0.00     0.122 A 
ATOM      3  N   UNL d   1     -47.520  31.652  35.333  0.00  0.00    -0.225 NA
ATOM      4  N   UNL d   1     -48.132  30.959  33.965  0.00  0.00    -0.241 NA
ATOM      5  C   UNL d   1     -47.652  32.110  34.657  0.00  0.00     0.101 A 
ATOM      6  C   UNL d   1     -47.956  31.764  33.978  0.00  0.00     0.099 A 
ATOM      7  C   UNL d   1     -47.477  32.908  34.673  0.00  0.00     0.021 A 
ATOM      8  C   UNL d   1     -48.087  32.224  33.306  0.00  0.00     0.021 A 
ATOM      9  C   UNL d   1     -47.912  33.026  33.319  0.00  0.00     0.002 A 
ATOM     10  C   UNL d   1     -47.606  33.374  34.002  0.00  0.00     0.002 A 
ENDROOT
BRANCH   2  11
ATOM     11  C   UNL d   1     -48.180  29.683  34.622  0.00  0.00     0.105 C 
BRANCH  11  12
ATOM     12  C   UNL d   1     -48.886  29.420  34.287  0.00  0.00     0.303 C 
ATOM     13  O   UNL d   1     -49.426  29.965  33.989  0.00  0.00    -0.259 OA
BRANCH  12  14
ATOM     14  O   UNL d   1     -49.050  28.617  34.251  0.00  0.00    -0.273 OA
BRANCH  14  15
ATOM     15  C   UNL d   1     -49.487  27.996  33.937  0.00  0.00     0.103 A 
ATOM     16  C   UNL d   1     -50.258  28.134  33.678  0.00  0.00     0.025 A 
ATOM     17  C   UNL d   1     -50.698  27.514  33.363  0.00  0.00     0.002 A 
ATOM     18  C   UNL d   1     -50.370  26.768  33.308  0.00  0.00     0.000 A 
ATOM     19  C   UNL d   1     -49.607  26.631  33.565  0.00  0.00     0.002 A 
ATOM     20  C   UNL d   1     -49.158  27.250  33.883  0.00  0.00     0.025 A 
ENDBRANCH  14  15
ENDBRANCH  12  14
ENDBRANCH  11  12
BRANCH  11  21
ATOM     21  C   UNL d   1     -47.649  29.131  34.945  0.00  0.00     0.129 C 
ATOM     22  N   UNL d   1     -47.068  28.598  34.411  0.00  0.00    -0.146 N 
ENDBRANCH  11  21
ENDBRANCH   2  11
BRANCH   1  23
ATOM     23  N   UNL d   1     -47.565  30.382  35.994  0.00  0.00    -0.284 N 
ATOM     24  C   UNL d   1     -46.811  30.358  36.340  0.00  0.00     0.106 A 
ATOM     25  C   UNL d   1     -46.686  29.899  37.012  0.00  0.00     0.118 A 
ATOM     26  C   UNL d   1     -45.932  29.878  37.354  0.00  0.00     0.028 C 
ATOM     27  O   UNL d   1     -47.300  29.464  37.347  0.00  0.00    -0.304 OA
ATOM     28  C   UNL d   1     -48.055  29.488  37.001  0.00  0.00     0.118 A 
ATOM     29  C   UNL d   1     -48.194  29.948  36.322  0.00  0.00     0.106 A 
ATOM     30  C   UNL d   1     -48.684  29.053  37.329  0.00  0.00     0.028 C 
ENDBRANCH   1  23
TORSDOF 6
ENDMDL
MODEL 3
REMARK VINA RESULT:     101.1      1.190      3.973
REMARK  6 active torsions:
REMARK  status: ('A' for Active; 'I' for Inactive)
REMARK    1  A    between atoms: N_3  and  C_1 
REMARK    2  A    between atoms: C_5  and  C_2 
REMARK    3  A    between atoms: C_7  and  C_5 
REMARK    4  A    between atoms: C_8  and  C_5 
REMARK    5  A    between atoms: O_15  and  C_7 
REMARK    6  A    between atoms: C_19  and  O_15 
ROOT
ATOM      1  C   UNL d   1     -50.310  26.949  35.666  0.00  0.00     0.166 A 
ATOM      2  C   UNL d   1     -51.005  26.728  35.280  0.00  0.00     0.122 A 
ATOM      3  N   UNL d   1     -50.253  26.891  36.492  0.00  0.00    -0.225 NA
ATOM      4  N   UNL d   1     -51.645  26.447  35.722  0.00  0.00    -0.241 NA
ATOM      5  C   UNL d   1     -50.899  26.609  36.927  0.00  0.00     0.101 A 
ATOM      6  C   UNL d   1     -51.590  26.389  36.542  0.00  0.00     0.099 A 
ATOM      7  C   UNL d   1     -50.840  26.552  37.740  0.00  0.00     0.021 A 
ATOM      8  C   UNL d   1     -52.231  26.108  36.980  0.00  0.00     0.021 A 
ATOM      9  C   UNL d   1     -52.175  26.051  37.796  0.00  0.00     0.002 A 
ATOM     10  C   UNL d   1     -51.480  26.272  38.182  0.00  0.00     0.002 A 
ENDROOT
BRANCH   2  11
ATOM     11  C   UNL d   1     -51.062  26.786  34.454  0.00  0.00     0.105 C 
BRANCH  11  12
ATOM     12  C   UNL d   1     -51.595  26.310  34.042  0.00  0.00     0.303 C 
ATOM     13  O   UNL d   1     -52.379  26.548  33.961  0.00  0.00    -0.259 OA
BRANCH  12  14
ATOM     14  O   UNL d   1     -51.344  25.601  33.714  0.00  0.00    -0.273 OA
BRANCH  14  15
ATOM     15  C   UNL d   1     -51.461  24.798  33.587  0.00  0.00     0.103 A 
ATOM     16  C   UNL d   1     -52.227  24.492  33.614  0.00  0.00     0.025 A 
ATOM     17  C   UNL d   1     -52.348  23.688  33.487  0.00  0.00     0.002 A 
ATOM     18  C   UNL d   1     -51.711  23.199  33.336  0.00  0.00     0.000 A 
ATOM     19  C   UNL d   1     -50.953  23.502  33.309  0.00  0.00     0.002 A 
ATOM     20  C   UNL d   1     -50.825  24.310  33.436  0.00  0.00     0.025 A 
ENDBRANCH  14  15
ENDBRANCH  12  14
ENDBRANCH  11  12
BRANCH  11  21
ATOM     21  C   UNL d   1     -50.584  27.323  34.037  0.00  0.00     0.129 C 
ATOM     22  N   UNL d   1     -50.912  27.861  33.323  0.00  0.00    -0.146 N 
ENDBRANCH  11  21
ENDBRANCH   2  11
BRANCH   1  23
ATOM     23  N   UNL d   1     -49.666  27.231  35.231  0.00  0.00    -0.284 N 
ATOM     24  C   UNL d   1     -49.245  26.717  34.733  0.00  0.00     0.106 A 
ATOM     25  C   UNL d   1     -48.604  27.004  34.303  0.00  0.00     0.118 A 
ATOM     26  C   UNL d   1     -48.186  26.488  33.807  0.00  0.00     0.028 C 
ATOM     27  O   UNL d   1     -48.375  27.793  34.359  0.00  0.00    -0.304 OA
ATOM     28  C   UNL d   1     -48.797  28.307  34.857  0.00  0.00     0.118 A 
ATOM     29  C   UNL d   1     -49.446  28.030  35.298  0.00  0.00     0.106 A 
ATOM     30  C   UNL d   1     -48.577  29.106  34.923  0.00  0.00     0.028 C 
ENDBRANCH   1  23
TORSDOF 6
ENDMDL
