MODEL 1
REMARK VINA RESULT:      10.5      0.000      0.000
REMARK  7 active torsions:
REMARK  status: ('A' for Active; 'I' for Inactive)
REMARK    1  A    between atoms: C_10  and  N_3 
REMARK    2  A    between atoms: C_12  and  C_10 
REMARK    3  A    between atoms: C_16  and  N_11 
REMARK    4  A    between atoms: O_29  and  C_15 
REMARK    5  A    between atoms: C_27  and  C_16 
REMARK    6  A    between atoms: O_30  and  C_17 
REMARK    7  A    between atoms: C_23  and  C_27 
ROOT
ATOM      1  C   UNL d   1     -42.855-121.998 -50.789  0.00  0.00     0.191 A 
ATOM      2  C   UNL d   1     -42.474-122.725 -50.624  0.00  0.00     0.173 A 
ATOM      3  N   UNL d   1     -43.088-122.752 -49.325  0.00  0.00    -0.224 N 
ATOM      4  N   UNL d   1     -42.641-121.753 -51.548  0.00  0.00    -0.042 NA
ATOM      5  C   UNL d   1     -42.051-122.323 -52.021  0.00  0.00     0.722 A 
ATOM      6  N   UNL d   1     -43.355-121.636 -50.231  0.00  0.00    -0.240 N 
ATOM      7  C   UNL d   1     -43.469-122.024 -49.490  0.00  0.00     0.343 A 
ATOM      8  C   UNL d   1     -42.594-123.090 -49.901  0.00  0.00     0.288 A 
ATOM      9  N   UNL d   1     -42.033-122.917 -51.284  0.00  0.00    -0.132 N 
ATOM     10  N   UNL d   1     -41.602-122.527 -52.678  0.00  0.00    -0.139 N 
ATOM     11  O   UNL d   1     -43.975-121.662 -48.920  0.00  0.00    -0.245 OA
ATOM     12  O   UNL d   1     -42.214-123.817 -49.736  0.00  0.00    -0.265 OA
ATOM     13  C   UNL d   1     -41.570-123.592 -51.357  0.00  0.00     0.100 A 
ATOM     14  C   UNL d   1     -43.735-120.908 -50.397  0.00  0.00     0.105 C 
ATOM     15  C   UNL d   1     -41.123-123.771 -52.044  0.00  0.00     0.039 A 
ATOM     16  C   UNL d   1     -41.140-123.226 -52.720  0.00  0.00     0.100 A 
ENDROOT
BRANCH  10  17
ATOM     17  C   UNL d   1     -41.360-122.330 -53.434  0.00  0.00     0.098 C 
BRANCH  17  18
ATOM     18  C   UNL d   1     -41.658-122.741 -54.074  0.00  0.00     0.020 C 
BRANCH  18  19
ATOM     19  C   UNL d   1     -41.788-122.352 -54.777  0.00  0.00     0.004 A 
ATOM     20  C   UNL d   1     -42.527-122.379 -55.122  0.00  0.00     0.026 A 
ATOM     21  C   UNL d   1     -42.663-121.990 -55.827  0.00  0.00     0.116 A 
ATOM     22  C   UNL d   1     -42.050-121.573 -56.186  0.00  0.00     0.116 A 
ATOM     23  C   UNL d   1     -41.315-121.548 -55.840  0.00  0.00     0.026 A 
ATOM     24  C   UNL d   1     -41.182-121.940 -55.130  0.00  0.00     0.002 A 
BRANCH  21  25
ATOM     25  O   UNL d   1     -43.403-122.016 -56.176  0.00  0.00    -0.326 OA
ATOM     26  C   UNL d   1     -43.773-122.725 -56.296  0.00  0.00     0.181 C 
ENDBRANCH  21  25
BRANCH  22  27
ATOM     27  O   UNL d   1     -42.377-121.261 -56.868  0.00  0.00    -0.326 OA
ATOM     28  C   UNL d   1     -41.898-120.938 -57.440  0.00  0.00     0.181 C 
ENDBRANCH  22  27
ENDBRANCH  18  19
ENDBRANCH  17  18
ENDBRANCH  10  17
BRANCH   3  29
ATOM     29  C   UNL d   1     -42.939-123.390 -48.800  0.00  0.00     0.090 C 
BRANCH  29  30
ATOM     30  C   UNL d   1     -42.502-123.256 -48.104  0.00  0.00     0.045 A 
ATOM     31  C   UNL d   1     -42.907-123.158 -47.377  0.00  0.00     0.141 A 
ATOM     32  F   UNL d   1     -43.741-123.194 -47.352  0.00  0.00    -0.204 F 
ATOM     33  C   UNL d   1     -42.472-123.022 -46.676  0.00  0.00     0.030 A 
ATOM     34  C   UNL d   1     -41.641-122.987 -46.705  0.00  0.00     0.002 A 
ATOM     35  C   UNL d   1     -41.242-123.085 -47.433  0.00  0.00     0.000 A 
ATOM     36  C   UNL d   1     -41.679-123.220 -48.130  0.00  0.00     0.004 A 
ENDBRANCH  29  30
ENDBRANCH   3  29
TORSDOF 7
ENDMDL
