MODEL 1
REMARK VINA RESULT:      37.7      0.000      0.000
REMARK  5 active torsions:
REMARK  status: ('A' for Active; 'I' for Inactive)
REMARK    1  A    between atoms: N_6  and  C_1 
REMARK    2  A    between atoms: C_8  and  C_4 
REMARK       I    between atoms: C_7  and  N_6 
REMARK    3  A    between atoms: C_13  and  C_7 
REMARK    4  A    between atoms: O_14  and  C_8 
REMARK    5  A    between atoms: C_18  and  O_14 
ROOT
ATOM      1  C   UNL d   1     -58.258 -98.797 -44.639  0.00  0.00     0.124 A 
ATOM      2  C   UNL d   1     -58.031 -98.886 -43.843  0.00  0.00     0.093 A 
ATOM      3  S   UNL d   1     -57.571 -98.757 -45.090  0.00  0.00    -0.062 SA
ATOM      4  C   UNL d   1     -56.927 -98.819 -44.579  0.00  0.00     0.095 A 
ATOM      5  C   UNL d   1     -57.206 -98.899 -43.813  0.00  0.00     0.023 A 
ATOM      6  C   UNL d   1     -58.558 -98.950 -43.192  0.00  0.00     0.103 C 
ATOM      7  N   UNL d   1     -59.063 -99.013 -42.552  0.00  0.00    -0.191 NA
ATOM      8  C   UNL d   1     -56.745 -98.978 -43.128  0.00  0.00     0.001 C 
ENDROOT
BRANCH   1   9
ATOM      9  N   UNL d   1     -59.032 -98.758 -44.917  0.00  0.00    -0.201 NA
ATOM     10  C   UNL d   1     -59.183 -98.872 -45.722  0.00  0.00     0.280 C 
ATOM     11  O   UNL d   1     -59.956 -98.832 -45.990  0.00  0.00    -0.265 OA
BRANCH  10  12
ATOM     12  C   UNL d   1     -58.570 -99.023 -46.243  0.00  0.00     0.058 C 
ATOM     13  C   UNL d   1     -57.910 -99.445 -45.989  0.00  0.00     0.005 C 
ATOM     14  C   UNL d   1     -58.603 -98.755 -47.030  0.00  0.00     0.005 C 
ENDBRANCH  10  12
ENDBRANCH   1   9
BRANCH   4  15
ATOM     15  C   UNL d   1     -56.136 -98.805 -44.802  0.00  0.00     0.306 C 
ATOM     16  O   UNL d   1     -55.923 -98.817 -45.609  0.00  0.00    -0.258 OA
BRANCH  15  17
ATOM     17  O   UNL d   1     -55.529 -98.777 -44.233  0.00  0.00    -0.271 OA
BRANCH  17  18
ATOM     18  C   UNL d   1     -54.906 -99.187 -44.594  0.00  0.00     0.126 C 
ATOM     19  C   UNL d   1     -54.796 -99.989 -44.441  0.00  0.00     0.029 C 
ENDBRANCH  17  18
ENDBRANCH  15  17
ENDBRANCH   4  15
TORSDOF 5
ENDMDL
