MODEL 1
REMARK VINA RESULT:      -2.9      0.000      0.000
REMARK  3 active torsions:
REMARK  status: ('A' for Active; 'I' for Inactive)
REMARK    1  A    between atoms: C_4  and  C_1 
REMARK    2  A    between atoms: O_10  and  C_4 
REMARK    3  A    between atoms: C_13  and  O_10 
ROOT
ATOM      1  C   UNL d   1      31.161  16.906 -24.024  0.00  0.00     0.121 A 
ATOM      2  C   UNL d   1      30.359  17.058 -24.229  0.00  0.00     0.204 A 
ATOM      3  C   UNL d   1      29.775  16.570 -23.939  0.00  0.00     0.057 A 
ATOM      4  N   UNL d   1      30.728  15.787 -23.254  0.00  0.00    -0.244 NA
ATOM      5  C   UNL d   1      31.346  16.269 -23.536  0.00  0.00     0.107 A 
ATOM      6  C   UNL d   1      29.959  15.933 -23.451  0.00  0.00     0.085 A 
ATOM      7  O   UNL d   1      30.177  17.688 -24.713  0.00  0.00    -0.286 OA
ATOM      8  C   UNL d   1      28.982  16.724 -24.145  0.00  0.00     0.005 A 
ATOM      9  C   UNL d   1      29.350  15.453 -23.169  0.00  0.00     0.019 A 
ATOM     10  C   UNL d   1      28.376  16.231 -23.853  0.00  0.00     0.000 A 
ATOM     11  C   UNL d   1      28.560  15.594 -23.365  0.00  0.00     0.002 A 
ENDROOT
BRANCH   1  12
ATOM     12  C   UNL d   1      31.764  17.399 -24.316  0.00  0.00     0.305 C 
ATOM     13  O   UNL d   1      32.027  17.319 -25.097  0.00  0.00    -0.259 OA
BRANCH  12  14
ATOM     14  O   UNL d   1      32.093  17.955 -23.837  0.00  0.00    -0.271 OA
BRANCH  14  15
ATOM     15  C   UNL d   1      32.790  18.333 -24.064  0.00  0.00     0.126 C 
ATOM     16  C   UNL d   1      33.137  18.906 -23.568  0.00  0.00     0.029 C 
ENDBRANCH  14  15
ENDBRANCH  12  14
ENDBRANCH   1  12
TORSDOF 3
ENDMDL
MODEL 2
REMARK VINA RESULT:      -2.7      1.263      3.534
REMARK  3 active torsions:
REMARK  status: ('A' for Active; 'I' for Inactive)
REMARK    1  A    between atoms: C_4  and  C_1 
REMARK    2  A    between atoms: O_10  and  C_4 
REMARK    3  A    between atoms: C_13  and  O_10 
ROOT
ATOM      1  C   UNL d   1      30.701  16.778 -24.235  0.00  0.00     0.121 A 
ATOM      2  C   UNL d   1      31.371  16.693 -23.733  0.00  0.00     0.204 A 
ATOM      3  C   UNL d   1      31.962  17.254 -23.762  0.00  0.00     0.057 A 
ATOM      4  N   UNL d   1      31.269  17.978 -24.754  0.00  0.00    -0.244 NA
ATOM      5  C   UNL d   1      30.650  17.421 -24.746  0.00  0.00     0.107 A 
ATOM      6  C   UNL d   1      31.911  17.897 -24.273  0.00  0.00     0.085 A 
ATOM      7  O   UNL d   1      31.422  16.056 -23.227  0.00  0.00    -0.286 OA
ATOM      8  C   UNL d   1      32.625  17.166 -23.264  0.00  0.00     0.005 A 
ATOM      9  C   UNL d   1      32.523  18.451 -24.284  0.00  0.00     0.019 A 
ATOM     10  C   UNL d   1      33.236  17.734 -23.285  0.00  0.00     0.000 A 
ATOM     11  C   UNL d   1      33.185  18.377 -23.796  0.00  0.00     0.002 A 
ENDROOT
BRANCH   1  12
ATOM     12  C   UNL d   1      30.093  16.211 -24.212  0.00  0.00     0.305 C 
ATOM     13  O   UNL d   1      30.189  15.480 -24.590  0.00  0.00    -0.259 OA
BRANCH  12  14
ATOM     14  O   UNL d   1      29.408  16.374 -23.822  0.00  0.00    -0.271 OA
BRANCH  14  15
ATOM     15  C   UNL d   1      28.751  15.887 -23.926  0.00  0.00     0.126 C 
ATOM     16  C   UNL d   1      28.045  16.042 -23.510  0.00  0.00     0.029 C 
ENDBRANCH  14  15
ENDBRANCH  12  14
ENDBRANCH   1  12
TORSDOF 3
ENDMDL
MODEL 3
REMARK VINA RESULT:      -2.3      3.814      6.046
REMARK  3 active torsions:
REMARK  status: ('A' for Active; 'I' for Inactive)
REMARK    1  A    between atoms: C_4  and  C_1 
REMARK    2  A    between atoms: O_10  and  C_4 
REMARK    3  A    between atoms: C_13  and  O_10 
ROOT
ATOM      1  C   UNL d   1      32.943  20.788 -22.017  0.00  0.00     0.121 A 
ATOM      2  C   UNL d   1      32.620  21.214 -21.367  0.00  0.00     0.204 A 
ATOM      3  C   UNL d   1      32.607  22.029 -21.392  0.00  0.00     0.057 A 
ATOM      4  N   UNL d   1      33.215  22.029 -22.665  0.00  0.00    -0.244 NA
ATOM      5  C   UNL d   1      33.241  21.196 -22.667  0.00  0.00     0.107 A 
ATOM      6  C   UNL d   1      32.905  22.437 -22.042  0.00  0.00     0.085 A 
ATOM      7  O   UNL d   1      32.325  20.810 -20.724  0.00  0.00    -0.286 OA
ATOM      8  C   UNL d   1      32.286  22.447 -20.746  0.00  0.00     0.005 A 
ATOM      9  C   UNL d   1      32.882  23.262 -22.043  0.00  0.00     0.019 A 
ATOM     10  C   UNL d   1      32.269  23.280 -20.761  0.00  0.00     0.000 A 
ATOM     11  C   UNL d   1      32.567  23.688 -21.411  0.00  0.00     0.002 A 
ENDROOT
BRANCH   1  12
ATOM     12  C   UNL d   1      32.960  19.957 -22.001  0.00  0.00     0.305 C 
ATOM     13  O   UNL d   1      33.241  19.559 -21.332  0.00  0.00    -0.259 OA
BRANCH  12  14
ATOM     14  O   UNL d   1      32.702  19.538 -22.638  0.00  0.00    -0.271 OA
BRANCH  14  15
ATOM     15  C   UNL d   1      33.094  18.849 -22.862  0.00  0.00     0.126 C 
ATOM     16  C   UNL d   1      32.720  18.299 -23.364  0.00  0.00     0.029 C 
ENDBRANCH  14  15
ENDBRANCH  12  14
ENDBRANCH   1  12
TORSDOF 3
ENDMDL
MODEL 4
REMARK VINA RESULT:      -2.3      1.097      3.301
REMARK  3 active torsions:
REMARK  status: ('A' for Active; 'I' for Inactive)
REMARK    1  A    between atoms: C_4  and  C_1 
REMARK    2  A    between atoms: O_10  and  C_4 
REMARK    3  A    between atoms: C_13  and  O_10 
ROOT
ATOM      1  C   UNL d   1      30.447  16.040 -24.033  0.00  0.00     0.121 A 
ATOM      2  C   UNL d   1      30.740  16.821 -24.148  0.00  0.00     0.204 A 
ATOM      3  C   UNL d   1      31.492  17.004 -23.894  0.00  0.00     0.057 A 
ATOM      4  N   UNL d   1      31.686  15.690 -23.420  0.00  0.00    -0.244 NA
ATOM      5  C   UNL d   1      30.920  15.474 -23.669  0.00  0.00     0.107 A 
ATOM      6  C   UNL d   1      31.966  16.438 -23.530  0.00  0.00     0.085 A 
ATOM      7  O   UNL d   1      30.271  17.382 -24.508  0.00  0.00    -0.286 OA
ATOM      8  C   UNL d   1      31.779  17.779 -24.009  0.00  0.00     0.005 A 
ATOM      9  C   UNL d   1      32.725  16.648 -23.282  0.00  0.00     0.019 A 
ATOM     10  C   UNL d   1      32.547  17.977 -23.754  0.00  0.00     0.000 A 
ATOM     11  C   UNL d   1      33.021  17.411 -23.390  0.00  0.00     0.002 A 
ENDROOT
BRANCH   1  12
ATOM     12  C   UNL d   1      29.680  15.844 -24.289  0.00  0.00     0.305 C 
ATOM     13  O   UNL d   1      29.500  15.830 -25.097  0.00  0.00    -0.259 OA
BRANCH  12  14
ATOM     14  O   UNL d   1      29.111  15.667 -23.748  0.00  0.00    -0.271 OA
BRANCH  14  15
ATOM     15  C   UNL d   1      28.324  15.611 -23.985  0.00  0.00     0.126 C 
ATOM     16  C   UNL d   1      27.728  15.453 -23.424  0.00  0.00     0.029 C 
ENDBRANCH  14  15
ENDBRANCH  12  14
ENDBRANCH   1  12
TORSDOF 3
ENDMDL
MODEL 5
REMARK VINA RESULT:      -1.4      6.228      6.948
REMARK  3 active torsions:
REMARK  status: ('A' for Active; 'I' for Inactive)
REMARK    1  A    between atoms: C_4  and  C_1 
REMARK    2  A    between atoms: O_10  and  C_4 
REMARK    3  A    between atoms: C_13  and  O_10 
ROOT
ATOM      1  C   UNL d   1      32.468  22.445 -21.666  0.00  0.00     0.121 A 
ATOM      2  C   UNL d   1      32.203  23.057 -22.179  0.00  0.00     0.204 A 
ATOM      3  C   UNL d   1      32.468  23.071 -22.950  0.00  0.00     0.057 A 
ATOM      4  N   UNL d   1      33.241  21.910 -22.738  0.00  0.00    -0.244 NA
ATOM      5  C   UNL d   1      32.987  21.871 -21.945  0.00  0.00     0.107 A 
ATOM      6  C   UNL d   1      32.987  22.497 -23.230  0.00  0.00     0.085 A 
ATOM      7  O   UNL d   1      31.689  23.625 -21.903  0.00  0.00    -0.286 OA
ATOM      8  C   UNL d   1      32.204  23.679 -23.456  0.00  0.00     0.005 A 
ATOM      9  C   UNL d   1      33.241  22.532 -24.015  0.00  0.00     0.019 A 
ATOM     10  C   UNL d   1      32.468  23.702 -24.247  0.00  0.00     0.000 A 
ATOM     11  C   UNL d   1      32.987  23.128 -24.526  0.00  0.00     0.002 A 
ENDROOT
BRANCH   1  12
ATOM     12  C   UNL d   1      32.203  22.423 -20.878  0.00  0.00     0.305 C 
ATOM     13  O   UNL d   1      31.476  22.073 -20.691  0.00  0.00    -0.259 OA
BRANCH  12  14
ATOM     14  O   UNL d   1      32.656  22.742 -20.294  0.00  0.00    -0.271 OA
BRANCH  14  15
ATOM     15  C   UNL d   1      32.800  22.313 -19.605  0.00  0.00     0.126 C 
ATOM     16  C   UNL d   1      33.200  22.668 -18.966  0.00  0.00     0.029 C 
ENDBRANCH  14  15
ENDBRANCH  12  14
ENDBRANCH   1  12
TORSDOF 3
ENDMDL
MODEL 6
REMARK VINA RESULT:      -0.6      6.594      7.821
REMARK  3 active torsions:
REMARK  status: ('A' for Active; 'I' for Inactive)
REMARK    1  A    between atoms: C_4  and  C_1 
REMARK    2  A    between atoms: O_10  and  C_4 
REMARK    3  A    between atoms: C_13  and  O_10 
ROOT
ATOM      1  C   UNL d   1      32.163  22.754 -20.329  0.00  0.00     0.121 A 
ATOM      2  C   UNL d   1      32.702  22.417 -19.777  0.00  0.00     0.204 A 
ATOM      3  C   UNL d   1      32.699  22.683 -19.007  0.00  0.00     0.057 A 
ATOM      4  N   UNL d   1      31.663  23.596 -19.292  0.00  0.00    -0.244 NA
ATOM      5  C   UNL d   1      31.643  23.344 -20.087  0.00  0.00     0.107 A 
ATOM      6  C   UNL d   1      32.179  23.273 -18.764  0.00  0.00     0.085 A 
ATOM      7  O   UNL d   1      33.217  21.833 -20.017  0.00  0.00    -0.286 OA
ATOM      8  C   UNL d   1      33.235  22.347 -18.463  0.00  0.00     0.005 A 
ATOM      9  C   UNL d   1      32.196  23.525 -17.978  0.00  0.00     0.019 A 
ATOM     10  C   UNL d   1      33.241  22.611 -17.672  0.00  0.00     0.000 A 
ATOM     11  C   UNL d   1      32.721  23.201 -17.429  0.00  0.00     0.002 A 
ENDROOT
BRANCH   1  12
ATOM     12  C   UNL d   1      32.159  22.489 -21.117  0.00  0.00     0.305 C 
ATOM     13  O   UNL d   1      32.027  21.690 -21.288  0.00  0.00    -0.259 OA
BRANCH  12  14
ATOM     14  O   UNL d   1      32.282  23.013 -21.716  0.00  0.00    -0.271 OA
BRANCH  14  15
ATOM     15  C   UNL d   1      32.469  22.737 -22.470  0.00  0.00     0.126 C 
ATOM     16  C   UNL d   1      32.637  23.275 -23.083  0.00  0.00     0.029 C 
ENDBRANCH  14  15
ENDBRANCH  12  14
ENDBRANCH   1  12
TORSDOF 3
ENDMDL
MODEL 7
REMARK VINA RESULT:      -0.3      4.557      5.838
REMARK  3 active torsions:
REMARK  status: ('A' for Active; 'I' for Inactive)
REMARK    1  A    between atoms: C_4  and  C_1 
REMARK    2  A    between atoms: O_10  and  C_4 
REMARK    3  A    between atoms: C_13  and  O_10 
ROOT
ATOM      1  C   UNL d   1      32.788  21.922 -22.099  0.00  0.00     0.121 A 
ATOM      2  C   UNL d   1      32.890  21.227 -21.635  0.00  0.00     0.204 A 
ATOM      3  C   UNL d   1      33.004  20.512 -22.010  0.00  0.00     0.057 A 
ATOM      4  N   UNL d   1      32.920  21.127 -23.276  0.00  0.00    -0.244 NA
ATOM      5  C   UNL d   1      32.802  21.872 -22.920  0.00  0.00     0.107 A 
ATOM      6  C   UNL d   1      33.019  20.462 -22.831  0.00  0.00     0.085 A 
ATOM      7  O   UNL d   1      32.876  21.276 -20.822  0.00  0.00    -0.286 OA
ATOM      8  C   UNL d   1      33.106  19.826 -21.546  0.00  0.00     0.005 A 
ATOM      9  C   UNL d   1      33.135  19.726 -23.187  0.00  0.00     0.019 A 
ATOM     10  C   UNL d   1      33.222  19.089 -21.919  0.00  0.00     0.000 A 
ATOM     11  C   UNL d   1      33.237  19.040 -22.741  0.00  0.00     0.002 A 
ENDROOT
BRANCH   1  12
ATOM     12  C   UNL d   1      32.671  22.655 -21.726  0.00  0.00     0.305 C 
ATOM     13  O   UNL d   1      33.234  23.257 -21.804  0.00  0.00    -0.259 OA
BRANCH  12  14
ATOM     14  O   UNL d   1      32.008  22.781 -21.286  0.00  0.00    -0.271 OA
BRANCH  14  15
ATOM     15  C   UNL d   1      31.779  23.550 -21.099  0.00  0.00     0.126 C 
ATOM     16  C   UNL d   1      31.146  23.683 -20.575  0.00  0.00     0.029 C 
ENDBRANCH  14  15
ENDBRANCH  12  14
ENDBRANCH   1  12
TORSDOF 3
ENDMDL
MODEL 8
REMARK VINA RESULT:      -0.2      2.328      4.705
REMARK  3 active torsions:
REMARK  status: ('A' for Active; 'I' for Inactive)
REMARK    1  A    between atoms: C_4  and  C_1 
REMARK    2  A    between atoms: O_10  and  C_4 
REMARK    3  A    between atoms: C_13  and  O_10 
ROOT
ATOM      1  C   UNL d   1      32.872  19.157 -23.099  0.00  0.00     0.121 A 
ATOM      2  C   UNL d   1      33.033  19.147 -22.273  0.00  0.00     0.204 A 
ATOM      3  C   UNL d   1      33.056  19.851 -21.863  0.00  0.00     0.057 A 
ATOM      4  N   UNL d   1      32.769  20.577 -23.038  0.00  0.00    -0.244 NA
ATOM      5  C   UNL d   1      32.740  19.873 -23.482  0.00  0.00     0.107 A 
ATOM      6  C   UNL d   1      32.924  20.567 -22.246  0.00  0.00     0.085 A 
ATOM      7  O   UNL d   1      33.164  18.437 -21.894  0.00  0.00    -0.286 OA
ATOM      8  C   UNL d   1      33.216  19.837 -21.045  0.00  0.00     0.005 A 
ATOM      9  C   UNL d   1      32.951  21.267 -21.810  0.00  0.00     0.019 A 
ATOM     10  C   UNL d   1      33.241  20.552 -20.617  0.00  0.00     0.000 A 
ATOM     11  C   UNL d   1      33.109  21.268 -21.000  0.00  0.00     0.002 A 
ENDROOT
BRANCH   1  12
ATOM     12  C   UNL d   1      32.848  18.443 -23.525  0.00  0.00     0.305 C 
ATOM     13  O   UNL d   1      33.241  18.376 -24.250  0.00  0.00    -0.259 OA
BRANCH  12  14
ATOM     14  O   UNL d   1      32.439  17.815 -23.230  0.00  0.00    -0.271 OA
BRANCH  14  15
ATOM     15  C   UNL d   1      32.173  17.223 -23.739  0.00  0.00     0.126 C 
ATOM     16  C   UNL d   1      31.675  16.619 -23.455  0.00  0.00     0.029 C 
ENDBRANCH  14  15
ENDBRANCH  12  14
ENDBRANCH   1  12
TORSDOF 3
ENDMDL
MODEL 9
REMARK VINA RESULT:       0.0      3.824      5.000
REMARK  3 active torsions:
REMARK  status: ('A' for Active; 'I' for Inactive)
REMARK    1  A    between atoms: C_4  and  C_1 
REMARK    2  A    between atoms: O_10  and  C_4 
REMARK    3  A    between atoms: C_13  and  O_10 
ROOT
ATOM      1  C   UNL d   1      32.904  20.644 -21.952  0.00  0.00     0.121 A 
ATOM      2  C   UNL d   1      33.074  20.699 -22.774  0.00  0.00     0.204 A 
ATOM      3  C   UNL d   1      33.070  20.022 -23.228  0.00  0.00     0.057 A 
ATOM      4  N   UNL d   1      32.740  19.235 -22.104  0.00  0.00    -0.244 NA
ATOM      5  C   UNL d   1      32.737  19.911 -21.616  0.00  0.00     0.107 A 
ATOM      6  C   UNL d   1      32.903  19.289 -22.892  0.00  0.00     0.085 A 
ATOM      7  O   UNL d   1      33.240  21.424 -23.107  0.00  0.00    -0.286 OA
ATOM      8  C   UNL d   1      33.239  20.081 -24.042  0.00  0.00     0.005 A 
ATOM      9  C   UNL d   1      32.905  18.617 -23.372  0.00  0.00     0.019 A 
ATOM     10  C   UNL d   1      33.237  19.394 -24.515  0.00  0.00     0.000 A 
ATOM     11  C   UNL d   1      33.070  18.661 -24.180  0.00  0.00     0.002 A 
ENDROOT
BRANCH   1  12
ATOM     12  C   UNL d   1      32.906  21.329 -21.482  0.00  0.00     0.305 C 
ATOM     13  O   UNL d   1      33.233  21.313 -20.721  0.00  0.00    -0.259 OA
BRANCH  12  14
ATOM     14  O   UNL d   1      32.589  22.012 -21.767  0.00  0.00    -0.271 OA
BRANCH  14  15
ATOM     15  C   UNL d   1      32.390  22.620 -21.249  0.00  0.00     0.126 C 
ATOM     16  C   UNL d   1      32.416  23.413 -21.503  0.00  0.00     0.029 C 
ENDBRANCH  14  15
ENDBRANCH  12  14
ENDBRANCH   1  12
TORSDOF 3
ENDMDL
