MODEL 1
REMARK VINA RESULT:      -7.9      0.000      0.000
REMARK  8 active torsions:
REMARK  status: ('A' for Active; 'I' for Inactive)
REMARK    1  A    between atoms: C_2  and  C_4 
REMARK    2  A    between atoms: S_9  and  C_6 
REMARK    3  A    between atoms: C_7  and  C_17 
REMARK       I    between atoms: N_16  and  C_7 
REMARK    4  A    between atoms: C_17  and  S_9 
REMARK    5  A    between atoms: O_19  and  C_14 
REMARK    6  A    between atoms: C_15  and  C_21 
REMARK    7  A    between atoms: C_20  and  N_16 
REMARK    8  A    between atoms: C_21  and  C_20 
ROOT
ATOM      1  C   UNL d   1      49.584  34.718  52.561  0.00  0.00     0.286 C 
ATOM      2  O   UNL d   1      49.460  34.461  51.790  0.00  0.00    -0.265 OA
ATOM      3  N   UNL d   1      49.046  35.220  52.911  0.00  0.00    -0.206 NA
ENDROOT
BRANCH   1   4
ATOM      4  C   UNL d   1      50.252  34.465  52.977  0.00  0.00     0.099 C 
BRANCH   4   5
ATOM      5  S   UNL d   1      50.899  34.173  52.565  0.00  0.00    -0.061 SA
BRANCH   5   6
ATOM      6  C   UNL d   1      51.602  33.998  52.960  0.00  0.00     0.133 A 
ATOM      7  N   UNL d   1      51.699  33.277  53.337  0.00  0.00    -0.141 NA
ATOM      8  N   UNL d   1      52.394  33.100  53.730  0.00  0.00    -0.147 NA
ATOM      9  C   UNL d   1      53.005  33.653  53.747  0.00  0.00     0.109 A 
ATOM     10  C   UNL d   1      52.915  34.383  53.369  0.00  0.00     0.024 A 
ATOM     11  C   UNL d   1      52.221  34.553  52.979  0.00  0.00     0.029 A 
BRANCH   9  12
ATOM     12  C   UNL d   1      53.707  33.481  54.141  0.00  0.00     0.049 A 
ATOM     13  S   UNL d   1      53.919  33.730  54.897  0.00  0.00    -0.085 SA
ATOM     14  C   UNL d   1      54.667  33.434  55.077  0.00  0.00     0.035 A 
ATOM     15  C   UNL d   1      54.925  32.991  54.418  0.00  0.00     0.007 A 
ATOM     16  C   UNL d   1      54.334  33.019  53.839  0.00  0.00     0.009 A 
ENDBRANCH   9  12
ENDBRANCH   5   6
ENDBRANCH   4   5
ENDBRANCH   1   4
BRANCH   3  17
ATOM     17  C   UNL d   1      48.377  35.474  52.495  0.00  0.00     0.102 C 
BRANCH  17  18
ATOM     18  C   UNL d   1      47.852  36.001  52.840  0.00  0.00     0.023 C 
BRANCH  18  19
ATOM     19  C   UNL d   1      47.086  36.083  52.539  0.00  0.00     0.024 A 
ATOM     20  C   UNL d   1      46.475  36.325  53.026  0.00  0.00     0.094 A 
ATOM     21  C   UNL d   1      45.721  36.405  52.730  0.00  0.00     0.024 A 
ATOM     22  C   UNL d   1      45.570  36.240  51.931  0.00  0.00     0.002 A 
ATOM     23  C   UNL d   1      46.188  35.995  51.439  0.00  0.00     0.000 A 
ATOM     24  C   UNL d   1      46.946  35.918  51.749  0.00  0.00     0.002 A 
BRANCH  20  25
ATOM     25  O   UNL d   1      46.619  36.489  53.817  0.00  0.00    -0.328 OA
ATOM     26  C   UNL d   1      45.995  36.709  54.305  0.00  0.00     0.181 C 
ENDBRANCH  20  25
ENDBRANCH  18  19
ENDBRANCH  17  18
ENDBRANCH   3  17
TORSDOF 8
ENDMDL
MODEL 2
REMARK VINA RESULT:      -7.4      1.772      6.847
REMARK  8 active torsions:
REMARK  status: ('A' for Active; 'I' for Inactive)
REMARK    1  A    between atoms: C_2  and  C_4 
REMARK    2  A    between atoms: S_9  and  C_6 
REMARK    3  A    between atoms: C_7  and  C_17 
REMARK       I    between atoms: N_16  and  C_7 
REMARK    4  A    between atoms: C_17  and  S_9 
REMARK    5  A    between atoms: O_19  and  C_14 
REMARK    6  A    between atoms: C_15  and  C_21 
REMARK    7  A    between atoms: C_20  and  N_16 
REMARK    8  A    between atoms: C_21  and  C_20 
ROOT
ATOM      1  C   UNL d   1      50.703  34.186  52.518  0.00  0.00     0.286 C 
ATOM      2  O   UNL d   1      51.175  34.437  51.892  0.00  0.00    -0.265 OA
ATOM      3  N   UNL d   1      51.015  33.692  53.085  0.00  0.00    -0.206 NA
ENDROOT
BRANCH   1   4
ATOM      4  C   UNL d   1      49.917  34.437  52.566  0.00  0.00     0.099 C 
BRANCH   4   5
ATOM      5  S   UNL d   1      49.574  34.822  51.927  0.00  0.00    -0.061 SA
BRANCH   5   6
ATOM      6  C   UNL d   1      48.812  35.131  51.986  0.00  0.00     0.133 A 
ATOM      7  N   UNL d   1      48.592  35.578  52.635  0.00  0.00    -0.141 NA
ATOM      8  N   UNL d   1      47.837  35.886  52.697  0.00  0.00    -0.147 NA
ATOM      9  C   UNL d   1      47.289  35.745  52.097  0.00  0.00     0.109 A 
ATOM     10  C   UNL d   1      47.503  35.294  51.438  0.00  0.00     0.024 A 
ATOM     11  C   UNL d   1      48.256  34.990  51.383  0.00  0.00     0.029 A 
BRANCH   9  12
ATOM     12  C   UNL d   1      46.527  36.052  52.152  0.00  0.00     0.049 A 
ATOM     13  S   UNL d   1      46.232  36.524  52.759  0.00  0.00    -0.085 SA
ATOM     14  C   UNL d   1      45.445  36.708  52.596  0.00  0.00     0.035 A 
ATOM     15  C   UNL d   1      45.247  36.342  51.872  0.00  0.00     0.007 A 
ATOM     16  C   UNL d   1      45.914  35.936  51.596  0.00  0.00     0.009 A 
ENDBRANCH   9  12
ENDBRANCH   5   6
ENDBRANCH   4   5
ENDBRANCH   1   4
BRANCH   3  17
ATOM     17  C   UNL d   1      51.801  33.440  53.037  0.00  0.00     0.102 C 
BRANCH  17  18
ATOM     18  C   UNL d   1      52.029  32.728  53.374  0.00  0.00     0.023 C 
BRANCH  18  19
ATOM     19  C   UNL d   1      52.828  32.569  53.512  0.00  0.00     0.024 A 
ATOM     20  C   UNL d   1      53.133  31.825  53.364  0.00  0.00     0.094 A 
ATOM     21  C   UNL d   1      53.920  31.668  53.500  0.00  0.00     0.024 A 
ATOM     22  C   UNL d   1      54.417  32.265  53.789  0.00  0.00     0.002 A 
ATOM     23  C   UNL d   1      54.109  33.018  53.938  0.00  0.00     0.000 A 
ATOM     24  C   UNL d   1      53.312  33.165  53.798  0.00  0.00     0.002 A 
BRANCH  20  25
ATOM     25  O   UNL d   1      52.645  31.230  53.078  0.00  0.00    -0.328 OA
ATOM     26  C   UNL d   1      52.924  30.457  53.046  0.00  0.00     0.181 C 
ENDBRANCH  20  25
ENDBRANCH  18  19
ENDBRANCH  17  18
ENDBRANCH   3  17
TORSDOF 8
ENDMDL
MODEL 3
REMARK VINA RESULT:      -6.6      1.553      1.952
REMARK  8 active torsions:
REMARK  status: ('A' for Active; 'I' for Inactive)
REMARK    1  A    between atoms: C_2  and  C_4 
REMARK    2  A    between atoms: S_9  and  C_6 
REMARK    3  A    between atoms: C_7  and  C_17 
REMARK       I    between atoms: N_16  and  C_7 
REMARK    4  A    between atoms: C_17  and  S_9 
REMARK    5  A    between atoms: O_19  and  C_14 
REMARK    6  A    between atoms: C_15  and  C_21 
REMARK    7  A    between atoms: C_20  and  N_16 
REMARK    8  A    between atoms: C_21  and  C_20 
ROOT
ATOM      1  C   UNL d   1      50.199  34.734  52.872  0.00  0.00     0.286 C 
ATOM      2  O   UNL d   1      50.472  35.326  53.374  0.00  0.00    -0.265 OA
ATOM      3  N   UNL d   1      49.442  34.773  52.575  0.00  0.00    -0.206 NA
ENDROOT
BRANCH   1   4
ATOM      4  C   UNL d   1      50.695  34.102  52.673  0.00  0.00     0.099 C 
BRANCH   4   5
ATOM      5  S   UNL d   1      51.474  34.101  52.935  0.00  0.00    -0.061 SA
BRANCH   5   6
ATOM      6  C   UNL d   1      51.885  33.391  53.016  0.00  0.00     0.133 A 
ATOM      7  N   UNL d   1      51.792  32.790  52.468  0.00  0.00    -0.141 NA
ATOM      8  N   UNL d   1      52.199  32.084  52.545  0.00  0.00    -0.147 NA
ATOM      9  C   UNL d   1      52.709  31.975  53.184  0.00  0.00     0.109 A 
ATOM     10  C   UNL d   1      52.807  32.577  53.742  0.00  0.00     0.024 A 
ATOM     11  C   UNL d   1      52.400  33.277  53.659  0.00  0.00     0.029 A 
BRANCH   9  12
ATOM     12  C   UNL d   1      53.120  31.268  53.268  0.00  0.00     0.049 A 
ATOM     13  S   UNL d   1      53.799  31.147  53.718  0.00  0.00    -0.085 SA
ATOM     14  C   UNL d   1      54.030  30.358  53.649  0.00  0.00     0.035 A 
ATOM     15  C   UNL d   1      53.482  29.982  53.144  0.00  0.00     0.007 A 
ATOM     16  C   UNL d   1      52.919  30.541  52.908  0.00  0.00     0.009 A 
ENDBRANCH   9  12
ENDBRANCH   5   6
ENDBRANCH   4   5
ENDBRANCH   1   4
BRANCH   3  17
ATOM     17  C   UNL d   1      48.946  35.404  52.774  0.00  0.00     0.102 C 
BRANCH  17  18
ATOM     18  C   UNL d   1      48.265  35.548  52.339  0.00  0.00     0.023 C 
BRANCH  18  19
ATOM     19  C   UNL d   1      47.623  35.936  52.686  0.00  0.00     0.024 A 
ATOM     20  C   UNL d   1      46.909  35.988  52.291  0.00  0.00     0.094 A 
ATOM     21  C   UNL d   1      46.277  36.370  52.633  0.00  0.00     0.024 A 
ATOM     22  C   UNL d   1      46.356  36.709  53.385  0.00  0.00     0.002 A 
ATOM     23  C   UNL d   1      47.079  36.657  53.784  0.00  0.00     0.000 A 
ATOM     24  C   UNL d   1      47.710  36.269  53.429  0.00  0.00     0.002 A 
BRANCH  20  25
ATOM     25  O   UNL d   1      46.825  35.653  51.546  0.00  0.00    -0.328 OA
ATOM     26  C   UNL d   1      46.080  35.608  51.203  0.00  0.00     0.181 C 
ENDBRANCH  20  25
ENDBRANCH  18  19
ENDBRANCH  17  18
ENDBRANCH   3  17
TORSDOF 8
ENDMDL
MODEL 4
REMARK VINA RESULT:      -5.3     10.381     11.242
REMARK  8 active torsions:
REMARK  status: ('A' for Active; 'I' for Inactive)
REMARK    1  A    between atoms: C_2  and  C_4 
REMARK    2  A    between atoms: S_9  and  C_6 
REMARK    3  A    between atoms: C_7  and  C_17 
REMARK       I    between atoms: N_16  and  C_7 
REMARK    4  A    between atoms: C_17  and  S_9 
REMARK    5  A    between atoms: O_19  and  C_14 
REMARK    6  A    between atoms: C_15  and  C_21 
REMARK    7  A    between atoms: C_20  and  N_16 
REMARK    8  A    between atoms: C_21  and  C_20 
ROOT
ATOM      1  C   UNL d   1      45.091  28.131  58.338  0.00  0.00     0.286 C 
ATOM      2  O   UNL d   1      45.629  28.696  58.074  0.00  0.00    -0.265 OA
ATOM      3  N   UNL d   1      44.658  28.271  59.013  0.00  0.00    -0.206 NA
ENDROOT
BRANCH   1   4
ATOM      4  C   UNL d   1      44.995  27.426  57.917  0.00  0.00     0.099 C 
BRANCH   4   5
ATOM      5  S   UNL d   1      45.198  27.399  57.122  0.00  0.00    -0.061 SA
BRANCH   5   6
ATOM      6  C   UNL d   1      45.096  26.705  56.689  0.00  0.00     0.133 A 
ATOM      7  N   UNL d   1      45.658  26.110  56.715  0.00  0.00    -0.141 NA
ATOM      8  N   UNL d   1      45.560  25.420  56.287  0.00  0.00    -0.147 NA
ATOM      9  C   UNL d   1      44.886  25.321  55.822  0.00  0.00     0.109 A 
ATOM     10  C   UNL d   1      44.314  25.917  55.790  0.00  0.00     0.024 A 
ATOM     11  C   UNL d   1      44.418  26.601  56.218  0.00  0.00     0.029 A 
BRANCH   9  12
ATOM     12  C   UNL d   1      44.781  24.629  55.389  0.00  0.00     0.049 A 
ATOM     13  S   UNL d   1      45.028  23.874  55.604  0.00  0.00    -0.085 SA
ATOM     14  C   UNL d   1      44.811  23.342  55.012  0.00  0.00     0.035 A 
ATOM     15  C   UNL d   1      44.421  23.778  54.416  0.00  0.00     0.007 A 
ATOM     16  C   UNL d   1      44.402  24.573  54.646  0.00  0.00     0.009 A 
ENDBRANCH   9  12
ENDBRANCH   5   6
ENDBRANCH   4   5
ENDBRANCH   1   4
BRANCH   3  17
ATOM     17  C   UNL d   1      44.754  28.976  59.435  0.00  0.00     0.102 C 
BRANCH  17  18
ATOM     18  C   UNL d   1      44.502  29.029  60.214  0.00  0.00     0.023 C 
BRANCH  18  19
ATOM     19  C   UNL d   1      44.508  29.758  60.605  0.00  0.00     0.024 A 
ATOM     20  C   UNL d   1      44.582  29.789  61.419  0.00  0.00     0.094 A 
ATOM     21  C   UNL d   1      44.588  30.506  61.804  0.00  0.00     0.024 A 
ATOM     22  C   UNL d   1      44.519  31.209  61.370  0.00  0.00     0.002 A 
ATOM     23  C   UNL d   1      44.444  31.177  60.547  0.00  0.00     0.000 A 
ATOM     24  C   UNL d   1      44.439  30.447  60.169  0.00  0.00     0.002 A 
BRANCH  20  25
ATOM     25  O   UNL d   1      44.651  29.096  61.853  0.00  0.00    -0.328 OA
ATOM     26  C   UNL d   1      44.774  29.136  62.665  0.00  0.00     0.181 C 
ENDBRANCH  20  25
ENDBRANCH  18  19
ENDBRANCH  17  18
ENDBRANCH   3  17
TORSDOF 8
ENDMDL
