MODEL 1
REMARK VINA RESULT:       6.3      0.000      0.000
REMARK  6 active torsions:
REMARK  status: ('A' for Active; 'I' for Inactive)
REMARK    1  A    between atoms: N_2  and  S_1 
REMARK    2  A    between atoms: C_6  and  S_1 
REMARK    3  A    between atoms: N_4  and  C_3 
REMARK       I    between atoms: C_5  and  N_4 
REMARK       I    between atoms: N_10  and  C_5 
REMARK    4  A    between atoms: C_7  and  C_11 
REMARK    5  A    between atoms: O_20  and  C_7 
REMARK    6  A    between atoms: C_14  and  N_10 
ROOT
ATOM      1  N   UNL d   1     -43.593-122.036 -50.064  0.00  0.00    -0.214 N 
ATOM      2  C   UNL d   1     -43.486-121.870 -50.873  0.00  0.00     0.162 A 
ATOM      3  C   UNL d   1     -44.352-121.773 -49.851  0.00  0.00     0.093 A 
ATOM      4  C   UNL d   1     -44.177-121.506 -51.156  0.00  0.00     0.040 A 
ATOM      5  C   UNL d   1     -44.703-121.448 -50.531  0.00  0.00     0.023 A 
ENDROOT
BRANCH   2   6
ATOM      6  N   UNL d   1     -42.797-122.043 -51.316  0.00  0.00    -0.173 NA
ATOM      7  C   UNL d   1     -42.184-121.495 -51.346  0.00  0.00     0.370 C 
ATOM      8  N   UNL d   1     -41.501-121.664 -51.783  0.00  0.00    -0.191 NA
ATOM      9  O   UNL d   1     -42.240-120.775 -50.943  0.00  0.00    -0.242 OA
BRANCH   8  10
ATOM     10  C   UNL d   1     -41.437-122.380 -52.187  0.00  0.00     0.086 A 
ATOM     11  C   UNL d   1     -41.624-122.417 -52.990  0.00  0.00     0.025 A 
ATOM     12  C   UNL d   1     -41.561-123.133 -53.394  0.00  0.00     0.065 A 
ATOM     13  C   UNL d   1     -41.309-123.813 -52.994  0.00  0.00     0.005 A 
ATOM     14  C   UNL d   1     -41.123-123.771 -52.192  0.00  0.00     0.002 A 
ATOM     15  C   UNL d   1     -41.187-123.057 -51.788  0.00  0.00     0.019 A 
BRANCH  12  16
ATOM     16  C   UNL d   1     -41.750-123.163 -54.199  0.00  0.00     0.296 C 
ATOM     17  O   UNL d   1     -42.496-123.386 -54.445  0.00  0.00    -0.259 OA
BRANCH  16  18
ATOM     18  O   UNL d   1     -41.173-122.964 -54.756  0.00  0.00    -0.296 OA
ATOM     19  C   UNL d   1     -41.340-122.439 -55.360  0.00  0.00     0.185 C 
ENDBRANCH  16  18
ENDBRANCH  12  16
ENDBRANCH   8  10
ENDBRANCH   2   6
BRANCH   1  20
ATOM     20  S   UNL d   1     -43.113-122.385 -49.497  0.00  0.00     0.272 S 
ATOM     21  O   UNL d   1     -43.402-123.112 -49.657  0.00  0.00    -0.200 OA
ATOM     22  O   UNL d   1     -42.792-121.653 -49.306  0.00  0.00    -0.200 OA
BRANCH  20  23
ATOM     23  C   UNL d   1     -42.628-122.749 -48.922  0.00  0.00     0.104 A 
ATOM     24  C   UNL d   1     -42.252-123.461 -49.091  0.00  0.00     0.014 A 
ATOM     25  C   UNL d   1     -41.780-123.811 -48.525  0.00  0.00     0.012 A 
ATOM     26  C   UNL d   1     -41.675-123.457 -47.779  0.00  0.00     0.058 A 
ATOM     27  C   UNL d   1     -42.051-122.745 -47.611  0.00  0.00     0.012 A 
ATOM     28 CL   UNL d   1     -41.196-123.815 -47.207  0.00  0.00    -0.082 Cl
ATOM     29  C   UNL d   1     -42.534-122.384 -48.187  0.00  0.00     0.014 A 
ENDBRANCH  20  23
ENDBRANCH   1  20
TORSDOF 6
ENDMDL
