MODEL 1
REMARK VINA RESULT:     -10.2      0.000      0.000
REMARK  8 active torsions:
REMARK  status: ('A' for Active; 'I' for Inactive)
REMARK    1  A    between atoms: C_8  and  N_1 
REMARK    2  A    between atoms: C_7  and  N_3 
REMARK    3  A    between atoms: C_11  and  C_7 
REMARK    4  A    between atoms: C_20  and  C_8 
REMARK    5  A    between atoms: C_9  and  C_13 
REMARK       I    between atoms: N_16  and  C_9 
REMARK    6  A    between atoms: C_24  and  N_16 
REMARK    7  A    between atoms: C_27  and  C_24 
REMARK    8  A    between atoms: C_25  and  C_27 
ROOT
ATOM      1  N   UNL d   1      53.117  33.829  53.117  0.00  0.00    -0.226 N 
ATOM      2  C   UNL d   1      53.268  33.034  52.953  0.00  0.00     0.342 A 
ATOM      3  N   UNL d   1      53.637  32.561  53.517  0.00  0.00    -0.259 N 
ATOM      4  C   UNL d   1      53.335  34.158  53.845  0.00  0.00     0.270 A 
ATOM      5  C   UNL d   1      53.705  33.676  54.405  0.00  0.00     0.073 A 
ATOM      6  C   UNL d   1      53.855  32.881  54.242  0.00  0.00     0.073 A 
ATOM      7  O   UNL d   1      53.044  32.711  52.215  0.00  0.00    -0.245 OA
ATOM      8  O   UNL d   1      53.186  34.945  54.006  0.00  0.00    -0.266 OA
ATOM      9  C   UNL d   1      53.923  34.004  55.134  0.00  0.00     0.006 A 
ATOM     10  C   UNL d   1      54.225  32.408  54.806  0.00  0.00     0.018 A 
ATOM     11  C   UNL d   1      54.295  33.522  55.699  0.00  0.00     0.000 A 
ATOM     12  C   UNL d   1      54.446  32.727  55.536  0.00  0.00     0.002 A 
ENDROOT
BRANCH   1  13
ATOM     13  C   UNL d   1      52.741  34.312  52.544  0.00  0.00     0.087 C 
BRANCH  13  14
ATOM     14  C   UNL d   1      51.931  34.415  52.562  0.00  0.00     0.018 A 
ATOM     15  C   UNL d   1      51.568  34.706  53.242  0.00  0.00     0.002 A 
ATOM     16  C   UNL d   1      50.742  34.811  53.260  0.00  0.00     0.005 A 
ATOM     17  C   UNL d   1      50.287  34.625  52.599  0.00  0.00     0.058 A 
ATOM     18  C   UNL d   1      50.650  34.331  51.913  0.00  0.00     0.005 A 
ATOM     19  C   UNL d   1      51.477  34.226  51.894  0.00  0.00     0.002 A 
BRANCH  17  20
ATOM     20  C   UNL d   1      49.468  34.729  52.617  0.00  0.00     0.279 C 
ATOM     21  O   UNL d   1      48.976  34.191  52.235  0.00  0.00    -0.265 OA
ATOM     22  N   UNL d   1      49.143  35.369  53.018  0.00  0.00    -0.206 NA
BRANCH  22  23
ATOM     23  C   UNL d   1      48.325  35.473  53.037  0.00  0.00     0.102 C 
BRANCH  23  24
ATOM     24  C   UNL d   1      48.004  36.164  53.351  0.00  0.00     0.021 C 
BRANCH  24  25
ATOM     25  C   UNL d   1      47.183  36.238  53.437  0.00  0.00     0.002 A 
ATOM     26  C   UNL d   1      46.726  36.523  52.806  0.00  0.00     0.000 A 
ATOM     27  C   UNL d   1      45.900  36.598  52.893  0.00  0.00     0.000 A 
ATOM     28  C   UNL d   1      45.540  36.386  53.610  0.00  0.00     0.000 A 
ATOM     29  C   UNL d   1      45.996  36.103  54.234  0.00  0.00     0.000 A 
ATOM     30  C   UNL d   1      46.822  36.029  54.148  0.00  0.00     0.000 A 
ENDBRANCH  24  25
ENDBRANCH  23  24
ENDBRANCH  22  23
ENDBRANCH  17  20
ENDBRANCH  13  14
ENDBRANCH   1  13
BRANCH   3  31
ATOM     31  C   UNL d   1      53.787  31.766  53.354  0.00  0.00     0.084 C 
BRANCH  31  32
ATOM     32  C   UNL d   1      53.176  31.214  53.389  0.00  0.00     0.018 A 
ATOM     33  C   UNL d   1      53.337  30.409  53.281  0.00  0.00     0.001 A 
ATOM     34  C   UNL d   1      54.123  30.148  53.134  0.00  0.00     0.000 C 
ATOM     35  C   UNL d   1      52.727  29.857  53.316  0.00  0.00     0.000 A 
ATOM     36  C   UNL d   1      51.956  30.108  53.460  0.00  0.00     0.000 A 
ATOM     37  C   UNL d   1      51.795  30.914  53.568  0.00  0.00     0.000 A 
ATOM     38  C   UNL d   1      52.406  31.466  53.533  0.00  0.00     0.002 A 
ENDBRANCH  31  32
ENDBRANCH   3  31
TORSDOF 8
ENDMDL
MODEL 2
REMARK VINA RESULT:     -10.1      0.996      2.513
REMARK  8 active torsions:
REMARK  status: ('A' for Active; 'I' for Inactive)
REMARK    1  A    between atoms: C_8  and  N_1 
REMARK    2  A    between atoms: C_7  and  N_3 
REMARK    3  A    between atoms: C_11  and  C_7 
REMARK    4  A    between atoms: C_20  and  C_8 
REMARK    5  A    between atoms: C_9  and  C_13 
REMARK       I    between atoms: N_16  and  C_9 
REMARK    6  A    between atoms: C_24  and  N_16 
REMARK    7  A    between atoms: C_27  and  C_24 
REMARK    8  A    between atoms: C_25  and  C_27 
ROOT
ATOM      1  N   UNL d   1      52.529  33.129  52.789  0.00  0.00    -0.226 N 
ATOM      2  C   UNL d   1      52.958  33.291  53.475  0.00  0.00     0.342 A 
ATOM      3  N   UNL d   1      53.257  32.673  53.930  0.00  0.00    -0.259 N 
ATOM      4  C   UNL d   1      52.395  32.347  52.551  0.00  0.00     0.270 A 
ATOM      5  C   UNL d   1      52.699  31.732  53.013  0.00  0.00     0.073 A 
ATOM      6  C   UNL d   1      53.128  31.894  53.699  0.00  0.00     0.073 A 
ATOM      7  O   UNL d   1      53.089  34.084  53.707  0.00  0.00    -0.245 OA
ATOM      8  O   UNL d   1      51.971  32.186  51.872  0.00  0.00    -0.266 OA
ATOM      9  C   UNL d   1      52.565  30.950  52.776  0.00  0.00     0.006 A 
ATOM     10  C   UNL d   1      53.427  31.276  54.154  0.00  0.00     0.018 A 
ATOM     11  C   UNL d   1      52.869  30.330  53.239  0.00  0.00     0.000 A 
ATOM     12  C   UNL d   1      53.298  30.492  53.925  0.00  0.00     0.002 A 
ENDROOT
BRANCH   1  13
ATOM     13  C   UNL d   1      52.224  33.757  52.325  0.00  0.00     0.087 C 
BRANCH  13  14
ATOM     14  C   UNL d   1      51.482  34.060  52.482  0.00  0.00     0.018 A 
ATOM     15  C   UNL d   1      51.359  34.524  53.151  0.00  0.00     0.002 A 
ATOM     16  C   UNL d   1      50.603  34.833  53.311  0.00  0.00     0.005 A 
ATOM     17  C   UNL d   1      49.976  34.675  52.800  0.00  0.00     0.058 A 
ATOM     18  C   UNL d   1      50.097  34.207  52.125  0.00  0.00     0.005 A 
ATOM     19  C   UNL d   1      50.853  33.898  51.965  0.00  0.00     0.002 A 
BRANCH  17  20
ATOM     20  C   UNL d   1      49.226  34.981  52.958  0.00  0.00     0.279 C 
ATOM     21  O   UNL d   1      48.959  35.036  53.735  0.00  0.00    -0.265 OA
ATOM     22  N   UNL d   1      48.744  35.231  52.340  0.00  0.00    -0.206 NA
BRANCH  22  23
ATOM     23  C   UNL d   1      47.994  35.537  52.499  0.00  0.00     0.102 C 
BRANCH  23  24
ATOM     24  C   UNL d   1      47.589  35.958  51.918  0.00  0.00     0.021 C 
BRANCH  24  25
ATOM     25  C   UNL d   1      46.764  36.028  51.955  0.00  0.00     0.002 A 
ATOM     26  C   UNL d   1      46.288  35.544  51.478  0.00  0.00     0.000 A 
ATOM     27  C   UNL d   1      45.458  35.615  51.515  0.00  0.00     0.000 A 
ATOM     28  C   UNL d   1      45.114  36.167  52.029  0.00  0.00     0.000 A 
ATOM     29  C   UNL d   1      45.589  36.646  52.501  0.00  0.00     0.000 A 
ATOM     30  C   UNL d   1      46.419  36.576  52.464  0.00  0.00     0.000 A 
ENDBRANCH  24  25
ENDBRANCH  23  24
ENDBRANCH  22  23
ENDBRANCH  17  20
ENDBRANCH  13  14
ENDBRANCH   1  13
BRANCH   3  31
ATOM     31  C   UNL d   1      53.686  32.835  54.616  0.00  0.00     0.084 C 
BRANCH  31  32
ATOM     32  C   UNL d   1      54.437  33.171  54.564  0.00  0.00     0.018 A 
ATOM     33  C   UNL d   1      54.767  33.554  55.220  0.00  0.00     0.001 A 
ATOM     34  C   UNL d   1      54.340  33.604  55.942  0.00  0.00     0.000 C 
ATOM     35  C   UNL d   1      55.517  33.889  55.169  0.00  0.00     0.000 A 
ATOM     36  C   UNL d   1      55.939  33.843  54.462  0.00  0.00     0.000 A 
ATOM     37  C   UNL d   1      55.609  33.459  53.806  0.00  0.00     0.000 A 
ATOM     38  C   UNL d   1      54.858  33.124  53.858  0.00  0.00     0.002 A 
ENDBRANCH  31  32
ENDBRANCH   3  31
TORSDOF 8
ENDMDL
