MODEL 1
REMARK VINA RESULT:      22.4      0.000      0.000
REMARK  2 active torsions:
REMARK  status: ('A' for Active; 'I' for Inactive)
REMARK    1  A    between atoms: N_5  and  C_1 
REMARK       I    between atoms: C_4  and  N_5 
REMARK    2  A    between atoms: C_7  and  C_4 
ROOT
ATOM      1  C   UNL d   1      14.041  12.456  -0.657  0.00  0.00     0.060 A 
ATOM      2  C   UNL d   1      14.730  13.685  -0.336  0.00  0.00     0.123 A 
ATOM      3  C   UNL d   1      14.040  13.238  -0.377  0.00  0.00     0.032 A 
ATOM      4  C   UNL d   1      15.453  13.351  -0.580  0.00  0.00     0.123 A 
ATOM      5  O   UNL d   1      14.722  14.453  -0.061  0.00  0.00    -0.301 OA
ATOM      6  O   UNL d   1      16.142  13.780  -0.546  0.00  0.00    -0.301 OA
ATOM      7  C   UNL d   1      14.755  12.124  -0.898  0.00  0.00     0.007 A 
ATOM      8  C   UNL d   1      15.466  12.577  -0.859  0.00  0.00     0.027 A 
ATOM      9  C   UNL d   1      15.405  14.912  -0.015  0.00  0.00     0.149 A 
ATOM     10  C   UNL d   1      16.132  14.580  -0.259  0.00  0.00     0.149 A 
ENDROOT
BRANCH   1  11
ATOM     11  C   UNL d   1      13.350  12.023  -0.692  0.00  0.00     0.281 C 
ATOM     12  N   UNL d   1      13.087  11.786  -1.443  0.00  0.00    -0.187 NA
ATOM     13  O   UNL d   1      12.851  11.780  -0.015  0.00  0.00    -0.265 OA
BRANCH  12  14
ATOM     14  C   UNL d   1      13.539  11.999  -2.130  0.00  0.00     0.194 A 
ATOM     15  N   UNL d   1      14.319  11.782  -2.295  0.00  0.00    -0.107 NA
ATOM     16  O   UNL d   1      14.535  12.111  -3.022  0.00  0.00    -0.210 OA
ATOM     17  C   UNL d   1      13.882  12.539  -3.318  0.00  0.00     0.128 A 
ATOM     18  C   UNL d   1      13.268  12.462  -2.754  0.00  0.00     0.068 A 
ATOM     19  C   UNL d   1      13.859  12.953  -4.028  0.00  0.00     0.029 C 
ENDBRANCH  12  14
ENDBRANCH   1  11
TORSDOF 2
ENDMDL
