MODEL 1
REMARK VINA RESULT:      -7.4      0.000      0.000
REMARK  0 active torsions:
REMARK  status: ('A' for Active; 'I' for Inactive)
ROOT
ATOM      1  N   UNL d   1     -47.182  11.428  23.698  0.00  0.00    -0.152 NA
ATOM      2  C   UNL d   1     -46.610  12.000  23.564  0.00  0.00     0.284 A 
ATOM      3  C   UNL d   1     -47.987  11.606  23.564  0.00  0.00     0.371 A 
ATOM      4  C   UNL d   1     -46.827  12.752  23.298  0.00  0.00     0.076 A 
ATOM      5  N   UNL d   1     -48.204  12.359  23.298  0.00  0.00    -0.191 NA
ATOM      6  C   UNL d   1     -47.621  12.933  23.165  0.00  0.00     0.091 A 
ATOM      7  O   UNL d   1     -45.814  11.823  23.696  0.00  0.00    -0.265 OA
ATOM      8  O   UNL d   1     -48.565  11.032  23.698  0.00  0.00    -0.242 OA
ATOM      9  C   UNL d   1     -46.246  13.322  23.166  0.00  0.00     0.006 A 
ATOM     10  C   UNL d   1     -47.834  13.685  22.900  0.00  0.00     0.019 A 
ATOM     11  C   UNL d   1     -46.459  14.073  22.901  0.00  0.00     0.000 A 
ATOM     12  C   UNL d   1     -47.253  14.254  22.768  0.00  0.00     0.002 A 
ENDROOT
TORSDOF 0
ENDMDL
MODEL 2
REMARK VINA RESULT:      -7.2      0.846      1.787
REMARK  0 active torsions:
REMARK  status: ('A' for Active; 'I' for Inactive)
ROOT
ATOM      1  N   UNL d   1     -46.557  11.069  23.690  0.00  0.00    -0.152 NA
ATOM      2  C   UNL d   1     -47.260  11.474  23.575  0.00  0.00     0.284 A 
ATOM      3  C   UNL d   1     -45.829  11.464  23.583  0.00  0.00     0.371 A 
ATOM      4  C   UNL d   1     -47.252  12.271  23.353  0.00  0.00     0.076 A 
ATOM      5  N   UNL d   1     -45.820  12.261  23.361  0.00  0.00    -0.191 NA
ATOM      6  C   UNL d   1     -46.535  12.665  23.246  0.00  0.00     0.091 A 
ATOM      7  O   UNL d   1     -47.980  11.083  23.681  0.00  0.00    -0.265 OA
ATOM      8  O   UNL d   1     -45.119  11.059  23.698  0.00  0.00    -0.242 OA
ATOM      9  C   UNL d   1     -47.964  12.671  23.240  0.00  0.00     0.006 A 
ATOM     10  C   UNL d   1     -46.530  13.460  23.025  0.00  0.00     0.019 A 
ATOM     11  C   UNL d   1     -47.959  13.465  23.019  0.00  0.00     0.000 A 
ATOM     12  C   UNL d   1     -47.242  13.860  22.912  0.00  0.00     0.002 A 
ENDROOT
TORSDOF 0
ENDMDL
MODEL 3
REMARK VINA RESULT:      -7.0      1.517      2.245
REMARK  0 active torsions:
REMARK  status: ('A' for Active; 'I' for Inactive)
ROOT
ATOM      1  N   UNL d   1     -46.936  14.216  22.878  0.00  0.00    -0.152 NA
ATOM      2  C   UNL d   1     -46.554  13.531  23.119  0.00  0.00     0.284 A 
ATOM      3  C   UNL d   1     -47.768  14.221  22.801  0.00  0.00     0.371 A 
ATOM      4  C   UNL d   1     -46.988  12.848  23.285  0.00  0.00     0.076 A 
ATOM      5  N   UNL d   1     -48.202  13.537  22.968  0.00  0.00    -0.191 NA
ATOM      6  C   UNL d   1     -47.810  12.848  23.211  0.00  0.00     0.091 A 
ATOM      7  O   UNL d   1     -45.731  13.526  23.194  0.00  0.00    -0.265 OA
ATOM      8  O   UNL d   1     -48.155  14.909  22.559  0.00  0.00    -0.242 OA
ATOM      9  C   UNL d   1     -46.596  12.164  23.527  0.00  0.00     0.006 A 
ATOM     10  C   UNL d   1     -48.240  12.165  23.378  0.00  0.00     0.019 A 
ATOM     11  C   UNL d   1     -47.026  11.480  23.694  0.00  0.00     0.000 A 
ATOM     12  C   UNL d   1     -47.848  11.481  23.620  0.00  0.00     0.002 A 
ENDROOT
TORSDOF 0
ENDMDL
MODEL 4
REMARK VINA RESULT:      -6.6      1.434      2.136
REMARK  0 active torsions:
REMARK  status: ('A' for Active; 'I' for Inactive)
ROOT
ATOM      1  N   UNL d   1     -49.071  12.076  22.038  0.00  0.00    -0.152 NA
ATOM      2  C   UNL d   1     -48.587  11.775  22.628  0.00  0.00     0.284 A 
ATOM      3  C   UNL d   1     -48.868  12.793  21.661  0.00  0.00     0.371 A 
ATOM      4  C   UNL d   1     -47.901  12.179  22.850  0.00  0.00     0.076 A 
ATOM      5  N   UNL d   1     -48.182  13.197  21.884  0.00  0.00    -0.191 NA
ATOM      6  C   UNL d   1     -47.696  12.888  22.481  0.00  0.00     0.091 A 
ATOM      7  O   UNL d   1     -48.787  11.066  23.000  0.00  0.00    -0.265 OA
ATOM      8  O   UNL d   1     -49.354  13.098  21.067  0.00  0.00    -0.242 OA
ATOM      9  C   UNL d   1     -47.419  11.869  23.444  0.00  0.00     0.006 A 
ATOM     10  C   UNL d   1     -47.011  13.288  22.705  0.00  0.00     0.019 A 
ATOM     11  C   UNL d   1     -46.734  12.269  23.669  0.00  0.00     0.000 A 
ATOM     12  C   UNL d   1     -46.530  12.978  23.299  0.00  0.00     0.002 A 
ENDROOT
TORSDOF 0
ENDMDL
MODEL 5
REMARK VINA RESULT:      -6.4      1.970      2.824
REMARK  0 active torsions:
REMARK  status: ('A' for Active; 'I' for Inactive)
ROOT
ATOM      1  N   UNL d   1     -47.243  14.442  22.959  0.00  0.00    -0.152 NA
ATOM      2  C   UNL d   1     -47.958  14.526  22.567  0.00  0.00     0.284 A 
ATOM      3  C   UNL d   1     -46.884  13.691  23.010  0.00  0.00     0.371 A 
ATOM      4  C   UNL d   1     -48.324  13.869  22.222  0.00  0.00     0.076 A 
ATOM      5  N   UNL d   1     -47.249  13.034  22.665  0.00  0.00    -0.191 NA
ATOM      6  C   UNL d   1     -47.972  13.124  22.270  0.00  0.00     0.091 A 
ATOM      7  O   UNL d   1     -48.314  15.270  22.516  0.00  0.00    -0.265 OA
ATOM      8  O   UNL d   1     -46.163  13.604  23.405  0.00  0.00    -0.242 OA
ATOM      9  C   UNL d   1     -49.043  13.962  21.829  0.00  0.00     0.006 A 
ATOM     10  C   UNL d   1     -48.340  12.471  21.925  0.00  0.00     0.019 A 
ATOM     11  C   UNL d   1     -49.411  13.309  21.484  0.00  0.00     0.000 A 
ATOM     12  C   UNL d   1     -49.059  12.564  21.532  0.00  0.00     0.002 A 
ENDROOT
TORSDOF 0
ENDMDL
MODEL 6
REMARK VINA RESULT:      -6.4      1.562      2.139
REMARK  0 active torsions:
REMARK  status: ('A' for Active; 'I' for Inactive)
ROOT
ATOM      1  N   UNL d   1     -49.114  13.935  22.996  0.00  0.00    -0.152 NA
ATOM      2  C   UNL d   1     -48.399  14.310  22.850  0.00  0.00     0.284 A 
ATOM      3  C   UNL d   1     -49.124  13.123  23.189  0.00  0.00     0.371 A 
ATOM      4  C   UNL d   1     -47.690  13.887  22.892  0.00  0.00     0.076 A 
ATOM      5  N   UNL d   1     -48.415  12.700  23.231  0.00  0.00    -0.191 NA
ATOM      6  C   UNL d   1     -47.696  13.084  23.082  0.00  0.00     0.091 A 
ATOM      7  O   UNL d   1     -48.389  15.114  22.659  0.00  0.00    -0.265 OA
ATOM      8  O   UNL d   1     -49.842  12.743  23.337  0.00  0.00    -0.242 OA
ATOM      9  C   UNL d   1     -46.976  14.271  22.743  0.00  0.00     0.006 A 
ATOM     10  C   UNL d   1     -46.987  12.664  23.123  0.00  0.00     0.019 A 
ATOM     11  C   UNL d   1     -46.267  13.852  22.784  0.00  0.00     0.000 A 
ATOM     12  C   UNL d   1     -46.272  13.049  22.974  0.00  0.00     0.002 A 
ENDROOT
TORSDOF 0
ENDMDL
MODEL 7
REMARK VINA RESULT:      -6.1      2.826      3.887
REMARK  0 active torsions:
REMARK  status: ('A' for Active; 'I' for Inactive)
ROOT
ATOM      1  N   UNL d   1     -49.698  13.259  21.232  0.00  0.00    -0.152 NA
ATOM      2  C   UNL d   1     -50.353  13.234  21.725  0.00  0.00     0.284 A 
ATOM      3  C   UNL d   1     -49.038  12.774  21.395  0.00  0.00     0.371 A 
ATOM      4  C   UNL d   1     -50.362  12.731  22.381  0.00  0.00     0.076 A 
ATOM      5  N   UNL d   1     -49.047  12.271  22.051  0.00  0.00    -0.191 NA
ATOM      6  C   UNL d   1     -49.712  12.250  22.546  0.00  0.00     0.091 A 
ATOM      7  O   UNL d   1     -51.006  13.714  21.564  0.00  0.00    -0.265 OA
ATOM      8  O   UNL d   1     -48.377  12.797  20.900  0.00  0.00    -0.242 OA
ATOM      9  C   UNL d   1     -51.025  12.712  22.872  0.00  0.00     0.006 A 
ATOM     10  C   UNL d   1     -49.724  11.750  23.201  0.00  0.00     0.019 A 
ATOM     11  C   UNL d   1     -51.037  12.212  23.527  0.00  0.00     0.000 A 
ATOM     12  C   UNL d   1     -50.387  11.731  23.692  0.00  0.00     0.002 A 
ENDROOT
TORSDOF 0
ENDMDL
MODEL 8
REMARK VINA RESULT:      -5.6      1.804      2.725
REMARK  0 active torsions:
REMARK  status: ('A' for Active; 'I' for Inactive)
ROOT
ATOM      1  N   UNL d   1     -50.166  12.607  22.589  0.00  0.00    -0.152 NA
ATOM      2  C   UNL d   1     -50.074  13.402  22.410  0.00  0.00     0.284 A 
ATOM      3  C   UNL d   1     -49.519  12.171  22.884  0.00  0.00     0.371 A 
ATOM      4  C   UNL d   1     -49.343  13.772  22.521  0.00  0.00     0.076 A 
ATOM      5  N   UNL d   1     -48.788  12.541  22.995  0.00  0.00    -0.191 NA
ATOM      6  C   UNL d   1     -48.700  13.345  22.812  0.00  0.00     0.091 A 
ATOM      7  O   UNL d   1     -50.715  13.834  22.118  0.00  0.00    -0.265 OA
ATOM      8  O   UNL d   1     -49.609  11.370  23.065  0.00  0.00    -0.242 OA
ATOM      9  C   UNL d   1     -49.259  14.572  22.339  0.00  0.00     0.006 A 
ATOM     10  C   UNL d   1     -47.972  13.717  22.922  0.00  0.00     0.019 A 
ATOM     11  C   UNL d   1     -48.531  14.945  22.448  0.00  0.00     0.000 A 
ATOM     12  C   UNL d   1     -47.888  14.517  22.739  0.00  0.00     0.002 A 
ENDROOT
TORSDOF 0
ENDMDL
MODEL 9
REMARK VINA RESULT:      -5.6      9.097      9.836
REMARK  0 active torsions:
REMARK  status: ('A' for Active; 'I' for Inactive)
ROOT
ATOM      1  N   UNL d   1     -41.039  14.897  17.647  0.00  0.00    -0.152 NA
ATOM      2  C   UNL d   1     -40.550  14.307  17.939  0.00  0.00     0.284 A 
ATOM      3  C   UNL d   1     -40.811  15.327  16.968  0.00  0.00     0.371 A 
ATOM      4  C   UNL d   1     -39.833  14.136  17.564  0.00  0.00     0.076 A 
ATOM      5  N   UNL d   1     -40.094  15.156  16.593  0.00  0.00    -0.191 NA
ATOM      6  C   UNL d   1     -39.603  14.558  16.893  0.00  0.00     0.091 A 
ATOM      7  O   UNL d   1     -40.776  13.882  18.610  0.00  0.00    -0.265 OA
ATOM      8  O   UNL d   1     -41.301  15.921  16.672  0.00  0.00    -0.242 OA
ATOM      9  C   UNL d   1     -39.347  13.541  17.864  0.00  0.00     0.006 A 
ATOM     10  C   UNL d   1     -38.888  14.386  16.522  0.00  0.00     0.019 A 
ATOM     11  C   UNL d   1     -38.631  13.369  17.492  0.00  0.00     0.000 A 
ATOM     12  C   UNL d   1     -38.402  13.790  16.822  0.00  0.00     0.002 A 
ENDROOT
TORSDOF 0
ENDMDL
