MODEL 1
REMARK VINA RESULT:      44.0      0.000      0.000
REMARK  5 active torsions:
REMARK  status: ('A' for Active; 'I' for Inactive)
REMARK    1  A    between atoms: C_9  and  C_1 
REMARK    2  A    between atoms: C_6  and  C_4 
REMARK    3  A    between atoms: C_5  and  C_6 
REMARK    4  A    between atoms: C_8  and  C_5 
REMARK    5  A    between atoms: C_11  and  C_8 
ROOT
ATOM      1  C   UNL d   1     -51.598  25.439  33.344  0.00  0.00     0.100 A 
ATOM      2  O   UNL d   1     -50.750  25.431  33.397  0.00  0.00    -0.307 OA
ATOM      3  C   UNL d   1     -51.836  26.177  33.306  0.00  0.00     0.027 A 
ATOM      4  C   UNL d   1     -50.520  26.233  33.385  0.00  0.00     0.100 A 
ATOM      5  C   UNL d   1     -51.196  26.679  33.329  0.00  0.00     0.027 A 
ENDROOT
BRANCH   4   6
ATOM      6  C   UNL d   1     -49.777  26.589  33.419  0.00  0.00     0.028 C 
BRANCH   6   7
ATOM      7  C   UNL d   1     -49.624  27.150  33.982  0.00  0.00     0.044 C 
BRANCH   7   8
ATOM      8  C   UNL d   1     -48.844  27.331  34.180  0.00  0.00     0.196 C 
ATOM      9  O   UNL d   1     -48.221  26.941  33.771  0.00  0.00    -0.287 OA
BRANCH   8  10
ATOM     10  C   UNL d   1     -48.690  27.881  34.762  0.00  0.00     0.039 A 
ATOM     11  C   UNL d   1     -49.139  27.905  35.463  0.00  0.00     0.003 A 
ATOM     12  C   UNL d   1     -48.982  28.459  36.048  0.00  0.00     0.000 A 
ATOM     13  C   UNL d   1     -48.365  29.004  35.940  0.00  0.00     0.000 A 
ATOM     14  C   UNL d   1     -47.917  28.981  35.243  0.00  0.00     0.000 A 
ATOM     15  C   UNL d   1     -48.083  28.427  34.671  0.00  0.00     0.003 A 
ENDBRANCH   8  10
ENDBRANCH   7   8
ENDBRANCH   6   7
ENDBRANCH   4   6
BRANCH   1  16
ATOM     16  C   UNL d   1     -51.949  24.690  33.347  0.00  0.00     0.023 A 
ATOM     17  C   UNL d   1     -51.467  24.006  33.309  0.00  0.00     0.002 A 
ATOM     18  C   UNL d   1     -51.824  23.256  33.312  0.00  0.00     0.000 A 
ATOM     19  C   UNL d   1     -52.629  23.188  33.351  0.00  0.00     0.000 A 
ATOM     20  C   UNL d   1     -53.116  23.873  33.389  0.00  0.00     0.000 A 
ATOM     21  C   UNL d   1     -52.759  24.622  33.387  0.00  0.00     0.002 A 
ENDBRANCH   1  16
TORSDOF 5
ENDMDL
MODEL 2
REMARK VINA RESULT:      45.8      0.662      1.177
REMARK  5 active torsions:
REMARK  status: ('A' for Active; 'I' for Inactive)
REMARK    1  A    between atoms: C_9  and  C_1 
REMARK    2  A    between atoms: C_6  and  C_4 
REMARK    3  A    between atoms: C_5  and  C_6 
REMARK    4  A    between atoms: C_8  and  C_5 
REMARK    5  A    between atoms: C_11  and  C_8 
ROOT
ATOM      1  C   UNL d   1     -51.185  26.002  33.442  0.00  0.00     0.100 A 
ATOM      2  O   UNL d   1     -50.364  26.010  33.659  0.00  0.00    -0.307 OA
ATOM      3  C   UNL d   1     -51.413  26.732  33.306  0.00  0.00     0.027 A 
ATOM      4  C   UNL d   1     -50.138  26.814  33.637  0.00  0.00     0.100 A 
ATOM      5  C   UNL d   1     -50.791  27.244  33.420  0.00  0.00     0.027 A 
ENDROOT
BRANCH   4   6
ATOM      6  C   UNL d   1     -49.416  27.182  33.792  0.00  0.00     0.028 C 
BRANCH   6   7
ATOM      7  C   UNL d   1     -49.360  27.724  34.390  0.00  0.00     0.044 C 
BRANCH   7   8
ATOM      8  C   UNL d   1     -48.668  27.774  34.835  0.00  0.00     0.196 C 
ATOM      9  O   UNL d   1     -48.276  27.064  35.055  0.00  0.00    -0.287 OA
BRANCH   8  10
ATOM     10  C   UNL d   1     -48.377  28.503  35.054  0.00  0.00     0.039 A 
ATOM     11  C   UNL d   1     -48.346  29.136  34.513  0.00  0.00     0.003 A 
ATOM     12  C   UNL d   1     -48.053  29.870  34.734  0.00  0.00     0.000 A 
ATOM     13  C   UNL d   1     -47.782  29.984  35.511  0.00  0.00     0.000 A 
ATOM     14  C   UNL d   1     -47.812  29.356  36.050  0.00  0.00     0.000 A 
ATOM     15  C   UNL d   1     -48.105  28.634  35.818  0.00  0.00     0.003 A 
ENDBRANCH   8  10
ENDBRANCH   7   8
ENDBRANCH   6   7
ENDBRANCH   4   6
BRANCH   1  16
ATOM     16  C   UNL d   1     -51.529  25.249  33.427  0.00  0.00     0.023 A 
ATOM     17  C   UNL d   1     -52.358  25.170  33.519  0.00  0.00     0.002 A 
ATOM     18  C   UNL d   1     -52.697  24.412  33.504  0.00  0.00     0.000 A 
ATOM     19  C   UNL d   1     -52.232  23.759  33.401  0.00  0.00     0.000 A 
ATOM     20  C   UNL d   1     -51.399  23.834  33.309  0.00  0.00     0.000 A 
ATOM     21  C   UNL d   1     -51.060  24.591  33.324  0.00  0.00     0.002 A 
ENDBRANCH   1  16
TORSDOF 5
ENDMDL
