MODEL 1
REMARK VINA RESULT:      92.0      0.000      0.000
REMARK  8 active torsions:
REMARK  status: ('A' for Active; 'I' for Inactive)
REMARK    1  A    between atoms: N_3  and  S_1 
REMARK    2  A    between atoms: C_5  and  S_1 
REMARK    3  A    between atoms: N_2  and  C_7 
REMARK    4  A    between atoms: C_6  and  N_3 
REMARK    5  A    between atoms: C_18  and  N_4 
REMARK    6  A    between atoms: C_7  and  C_6 
REMARK    7  A    between atoms: C_12  and  C_7 
REMARK    8  A    between atoms: O_23  and  C_17 
ROOT
ATOM      1  C   UNL d   1     -50.378  27.542  33.521  0.00  0.00     0.086 C 
ENDROOT
BRANCH   1   2
ATOM      2  N   UNL d   1     -50.778  26.812  33.501  0.00  0.00    -0.300 N 
ATOM      3  C   UNL d   1     -50.362  26.126  33.326  0.00  0.00     0.100 A 
ATOM      4  C   UNL d   1     -50.754  25.400  33.305  0.00  0.00     0.100 A 
ATOM      5  N   UNL d   1     -51.561  25.364  33.461  0.00  0.00    -0.301 N 
ATOM      6  C   UNL d   1     -51.978  26.055  33.637  0.00  0.00     0.100 A 
ATOM      7  C   UNL d   1     -51.585  26.777  33.657  0.00  0.00     0.100 A 
BRANCH   5   8
ATOM      8  C   UNL d   1     -51.953  24.643  33.442  0.00  0.00     0.064 A 
ATOM      9  C   UNL d   1     -51.529  23.943  33.327  0.00  0.00     0.018 A 
ATOM     10  C   UNL d   1     -51.922  23.222  33.307  0.00  0.00     0.002 A 
ATOM     11  C   UNL d   1     -52.744  23.194  33.403  0.00  0.00     0.000 A 
ATOM     12  C   UNL d   1     -53.169  23.894  33.518  0.00  0.00     0.002 A 
ATOM     13  C   UNL d   1     -52.776  24.616  33.537  0.00  0.00     0.018 A 
ENDBRANCH   5   8
ENDBRANCH   1   2
BRANCH   1  14
ATOM     14  C   UNL d   1     -49.558  27.558  33.611  0.00  0.00     0.130 C 
BRANCH  14  15
ATOM     15  N   UNL d   1     -49.223  27.859  34.309  0.00  0.00    -0.155 NA
BRANCH  15  16
ATOM     16  S   UNL d   1     -48.564  27.496  34.639  0.00  0.00     0.285 S 
ATOM     17  O   UNL d   1     -48.862  26.683  34.355  0.00  0.00    -0.198 OA
ATOM     18  O   UNL d   1     -47.946  27.178  34.951  0.00  0.00    -0.198 OA
BRANCH  16  19
ATOM     19  C   UNL d   1     -48.289  28.232  34.898  0.00  0.00     0.105 A 
ATOM     20  C   UNL d   1     -48.393  28.454  35.682  0.00  0.00     0.015 A 
ATOM     21  C   UNL d   1     -48.120  29.190  35.946  0.00  0.00     0.023 A 
ATOM     22  C   UNL d   1     -48.225  29.412  36.736  0.00  0.00     0.002 C 
ATOM     23  C   UNL d   1     -47.740  29.705  35.415  0.00  0.00     0.094 A 
ATOM     24  C   UNL d   1     -47.638  29.477  34.625  0.00  0.00     0.025 A 
ATOM     25  C   UNL d   1     -47.909  28.747  34.366  0.00  0.00     0.015 A 
BRANCH  23  26
ATOM     26  O   UNL d   1     -47.466  30.440  35.674  0.00  0.00    -0.328 OA
ATOM     27  C   UNL d   1     -47.582  31.119  35.207  0.00  0.00     0.181 C 
ENDBRANCH  23  26
ENDBRANCH  16  19
ENDBRANCH  15  16
ENDBRANCH  14  15
ENDBRANCH   1  14
BRANCH   1  28
ATOM     28  C   UNL d   1     -50.798  28.247  33.450  0.00  0.00     0.037 A 
ATOM     29  C   UNL d   1     -51.620  28.232  33.384  0.00  0.00     0.100 A 
ATOM     30  N   UNL d   1     -52.041  28.941  33.314  0.00  0.00    -0.242 NA
ATOM     31  C   UNL d   1     -51.638  29.660  33.310  0.00  0.00     0.099 A 
ATOM     32  C   UNL d   1     -50.821  29.673  33.376  0.00  0.00     0.021 A 
ATOM     33  C   UNL d   1     -50.399  28.964  33.447  0.00  0.00     0.005 A 
ENDBRANCH   1  28
TORSDOF 8
ENDMDL
MODEL 2
REMARK VINA RESULT:      94.5      2.134      4.008
REMARK  8 active torsions:
REMARK  status: ('A' for Active; 'I' for Inactive)
REMARK    1  A    between atoms: N_3  and  S_1 
REMARK    2  A    between atoms: C_5  and  S_1 
REMARK    3  A    between atoms: N_2  and  C_7 
REMARK    4  A    between atoms: C_6  and  N_3 
REMARK    5  A    between atoms: C_18  and  N_4 
REMARK    6  A    between atoms: C_7  and  C_6 
REMARK    7  A    between atoms: C_12  and  C_7 
REMARK    8  A    between atoms: O_23  and  C_17 
ROOT
ATOM      1  C   UNL d   1     -47.615  29.424  35.175  0.00  0.00     0.086 C 
ENDROOT
BRANCH   1   2
ATOM      2  N   UNL d   1     -48.171  28.889  34.862  0.00  0.00    -0.300 N 
ATOM      3  C   UNL d   1     -48.871  29.174  34.540  0.00  0.00     0.100 A 
ATOM      4  C   UNL d   1     -49.426  28.648  34.228  0.00  0.00     0.100 A 
ATOM      5  N   UNL d   1     -49.277  27.839  34.241  0.00  0.00    -0.301 N 
ATOM      6  C   UNL d   1     -48.573  27.555  34.565  0.00  0.00     0.100 A 
ATOM      7  C   UNL d   1     -48.022  28.080  34.875  0.00  0.00     0.100 A 
BRANCH   5   8
ATOM      8  C   UNL d   1     -49.827  27.314  33.932  0.00  0.00     0.064 A 
ATOM      9  C   UNL d   1     -49.590  26.558  33.693  0.00  0.00     0.018 A 
ATOM     10  C   UNL d   1     -50.141  26.033  33.383  0.00  0.00     0.002 A 
ATOM     11  C   UNL d   1     -50.935  26.259  33.310  0.00  0.00     0.000 A 
ATOM     12  C   UNL d   1     -51.172  27.014  33.550  0.00  0.00     0.002 A 
ATOM     13  C   UNL d   1     -50.621  27.539  33.859  0.00  0.00     0.018 A 
ENDBRANCH   5   8
ENDBRANCH   1   2
BRANCH   1  14
ATOM     14  C   UNL d   1     -47.066  29.783  34.674  0.00  0.00     0.130 C 
BRANCH  14  15
ATOM     15  N   UNL d   1     -47.138  30.591  34.491  0.00  0.00    -0.155 NA
BRANCH  15  16
ATOM     16  S   UNL d   1     -46.515  30.989  34.133  0.00  0.00     0.285 S 
ATOM     17  O   UNL d   1     -45.988  30.249  34.213  0.00  0.00    -0.198 OA
ATOM     18  O   UNL d   1     -45.949  31.374  33.798  0.00  0.00    -0.198 OA
BRANCH  16  19
ATOM     19  C   UNL d   1     -46.989  31.662  34.058  0.00  0.00     0.105 A 
ATOM     20  C   UNL d   1     -47.591  31.801  34.600  0.00  0.00     0.015 A 
ATOM     21  C   UNL d   1     -48.069  32.473  34.529  0.00  0.00     0.023 A 
ATOM     22  C   UNL d   1     -48.674  32.611  35.075  0.00  0.00     0.002 C 
ATOM     23  C   UNL d   1     -47.938  33.009  33.906  0.00  0.00     0.094 A 
ATOM     24  C   UNL d   1     -47.330  32.866  33.362  0.00  0.00     0.025 A 
ATOM     25  C   UNL d   1     -46.858  32.198  33.435  0.00  0.00     0.015 A 
BRANCH  23  26
ATOM     26  O   UNL d   1     -48.412  33.682  33.831  0.00  0.00    -0.328 OA
ATOM     27  C   UNL d   1     -49.057  33.684  33.306  0.00  0.00     0.181 C 
ENDBRANCH  23  26
ENDBRANCH  16  19
ENDBRANCH  15  16
ENDBRANCH  14  15
ENDBRANCH   1  14
BRANCH   1  28
ATOM     28  C   UNL d   1     -47.610  29.594  35.980  0.00  0.00     0.037 A 
ATOM     29  C   UNL d   1     -48.312  29.559  36.411  0.00  0.00     0.100 A 
ATOM     30  N   UNL d   1     -48.308  29.731  37.221  0.00  0.00    -0.242 NA
ATOM     31  C   UNL d   1     -47.601  29.936  37.594  0.00  0.00     0.099 A 
ATOM     32  C   UNL d   1     -46.904  29.971  37.163  0.00  0.00     0.021 A 
ATOM     33  C   UNL d   1     -46.909  29.799  36.353  0.00  0.00     0.005 A 
ENDBRANCH   1  28
TORSDOF 8
ENDMDL
