MODEL 1
REMARK VINA RESULT:      -2.3      0.000      0.000
REMARK  0 active torsions:
REMARK  status: ('A' for Active; 'I' for Inactive)
ROOT
ATOM      1  C   UNL d   1      24.493  13.497  -0.434  0.00  0.00     0.221 A 
ATOM      2  N   UNL d   1      24.768  13.243  -1.169  0.00  0.00    -0.217 NA
ATOM      3  N   UNL d   1      23.928  13.056  -0.022  0.00  0.00    -0.216 NA
ATOM      4  S   UNL d   1      24.765  14.191  -0.082  0.00  0.00    -0.037 SA
ATOM      5  C   UNL d   1      24.480  12.545  -1.499  0.00  0.00     0.085 A 
ATOM      6  C   UNL d   1      23.640  12.353  -0.358  0.00  0.00     0.103 A 
ATOM      7  C   UNL d   1      23.915  12.099  -1.093  0.00  0.00     0.040 A 
ATOM      8  C   UNL d   1      24.767  12.308  -2.235  0.00  0.00     0.021 C 
ENDROOT
TORSDOF 0
ENDMDL
MODEL 2
REMARK VINA RESULT:       0.5      0.312      1.402
REMARK  0 active torsions:
REMARK  status: ('A' for Active; 'I' for Inactive)
ROOT
ATOM      1  C   UNL d   1      24.445  13.566  -0.442  0.00  0.00     0.221 A 
ATOM      2  N   UNL d   1      23.948  13.031  -0.060  0.00  0.00    -0.217 NA
ATOM      3  N   UNL d   1      24.769  13.384  -1.182  0.00  0.00    -0.216 NA
ATOM      4  S   UNL d   1      24.641  14.295  -0.111  0.00  0.00    -0.037 SA
ATOM      5  C   UNL d   1      23.769  12.309  -0.413  0.00  0.00     0.085 A 
ATOM      6  C   UNL d   1      24.585  12.655  -1.534  0.00  0.00     0.103 A 
ATOM      7  C   UNL d   1      24.087  12.120  -1.152  0.00  0.00     0.040 A 
ATOM      8  C   UNL d   1      23.269  11.787  -0.014  0.00  0.00     0.021 C 
ENDROOT
TORSDOF 0
ENDMDL
