MODEL 1
REMARK VINA RESULT:      41.0      0.000      0.000
REMARK  2 active torsions:
REMARK  status: ('A' for Active; 'I' for Inactive)
REMARK    1  A    between atoms: C_9  and  N_2 
REMARK    2  A    between atoms: C_7  and  C_4 
ROOT
ATOM      1  C   UNL d   1      14.223  12.609  -2.161  0.00  0.00     0.136 A 
ATOM      2  N   UNL d   1      13.974  13.101  -2.777  0.00  0.00    -0.281 N 
ATOM      3  C   UNL d   1      14.507  12.945  -1.460  0.00  0.00     0.152 A 
ATOM      4  C   UNL d   1      14.011  13.929  -2.688  0.00  0.00     0.175 A 
ATOM      5  N   UNL d   1      14.296  14.257  -1.985  0.00  0.00    -0.188 NA
ATOM      6  C   UNL d   1      14.544  13.765  -1.373  0.00  0.00     0.292 A 
ATOM      7  C   UNL d   1      14.755  12.453  -0.848  0.00  0.00     0.108 C 
ATOM      8  N   UNL d   1      15.005  11.961  -0.228  0.00  0.00    -0.191 NA
ATOM      9  S   UNL d   1      14.189  11.788  -2.241  0.00  0.00    -0.058 SA
ATOM     10  O   UNL d   1      14.831  14.092  -0.665  0.00  0.00    -0.264 OA
ENDROOT
BRANCH   2  11
ATOM     11  C   UNL d   1      13.691  12.773  -3.473  0.00  0.00     0.066 A 
ATOM     12  C   UNL d   1      14.046  12.971  -4.191  0.00  0.00     0.020 A 
ATOM     13  C   UNL d   1      13.760  12.640  -4.889  0.00  0.00     0.031 A 
ATOM     14  C   UNL d   1      13.123  12.112  -4.872  0.00  0.00     0.140 A 
ATOM     15  C   UNL d   1      12.769  11.915  -4.149  0.00  0.00     0.031 A 
ATOM     16  F   UNL d   1      12.841  11.783  -5.577  0.00  0.00    -0.204 F 
ATOM     17  C   UNL d   1      13.054  12.246  -3.450  0.00  0.00     0.020 A 
ENDBRANCH   2  11
BRANCH   4  18
ATOM     18  C   UNL d   1      13.763  14.421  -3.301  0.00  0.00     0.135 A 
ATOM     19  O   UNL d   1      13.018  14.424  -3.645  0.00  0.00    -0.302 OA
ATOM     20  C   UNL d   1      13.016  14.999  -4.230  0.00  0.00     0.123 A 
ATOM     21  C   UNL d   1      13.759  15.352  -4.247  0.00  0.00     0.029 A 
ATOM     22  C   UNL d   1      14.224  15.003  -3.680  0.00  0.00     0.030 A 
ENDBRANCH   4  18
TORSDOF 2
ENDMDL
