MODEL 1
REMARK VINA RESULT:      -1.1      0.000      0.000
REMARK  5 active torsions:
REMARK  status: ('A' for Active; 'I' for Inactive)
REMARK    1  A    between atoms: C_7  and  C_1 
REMARK    2  A    between atoms: C_10  and  C_3 
REMARK    3  A    between atoms: C_8  and  C_4 
REMARK    4  A    between atoms: O_14  and  C_7 
REMARK    5  A    between atoms: C_20  and  O_14 
ROOT
ATOM      1  C   UNL d   1      58.637  -0.725  29.845  0.00  0.00     0.102 A 
ATOM      2  C   UNL d   1      58.463  -0.010  30.232  0.00  0.00     0.201 A 
ATOM      3  C   UNL d   1      58.246  -1.424  30.050  0.00  0.00     0.008 A 
ATOM      4  C   UNL d   1      57.498  -0.719  31.028  0.00  0.00     0.003 A 
ATOM      5  C   UNL d   1      57.890  -0.020  30.824  0.00  0.00     0.042 A 
ATOM      6  C   UNL d   1      57.676  -1.415  30.643  0.00  0.00     0.000 A 
ATOM      7  O   UNL d   1      58.850   0.682  30.030  0.00  0.00    -0.286 OA
ENDROOT
BRANCH   4   8
ATOM      8  C   UNL d   1      56.924  -0.705  31.628  0.00  0.00     0.000 A 
ATOM      9  C   UNL d   1      56.848  -1.358  32.137  0.00  0.00     0.000 A 
ATOM     10  C   UNL d   1      56.290  -1.354  32.727  0.00  0.00     0.000 A 
ATOM     11  C   UNL d   1      55.795  -0.688  32.812  0.00  0.00     0.000 A 
ATOM     12  C   UNL d   1      55.878  -0.054  32.308  0.00  0.00     0.000 A 
ATOM     13  C   UNL d   1      55.223  -0.680  33.413  0.00  0.00     0.000 C 
ATOM     14  C   UNL d   1      56.440  -0.060  31.716  0.00  0.00     0.000 A 
ENDBRANCH   4   8
BRANCH   3  15
ATOM     15  C   UNL d   1      58.428  -2.124  29.658  0.00  0.00     0.000 A 
ATOM     16  C   UNL d   1      57.983  -2.341  28.996  0.00  0.00     0.000 A 
ATOM     17  C   UNL d   1      58.172  -3.047  28.607  0.00  0.00     0.000 A 
ATOM     18  C   UNL d   1      58.774  -3.521  28.859  0.00  0.00     0.000 A 
ATOM     19  C   UNL d   1      59.219  -3.291  29.533  0.00  0.00     0.000 A 
ATOM     20  C   UNL d   1      59.040  -2.590  29.928  0.00  0.00     0.000 A 
ENDBRANCH   3  15
BRANCH   1  21
ATOM     21  C   UNL d   1      59.213  -0.734  29.245  0.00  0.00     0.303 C 
ATOM     22  O   UNL d   1      58.988  -0.832  28.455  0.00  0.00    -0.259 OA
BRANCH  21  23
ATOM     23  O   UNL d   1      60.016  -0.647  29.433  0.00  0.00    -0.271 OA
BRANCH  23  24
ATOM     24  C   UNL d   1      60.502  -0.176  28.961  0.00  0.00     0.126 C 
ATOM     25  C   UNL d   1      61.132   0.234  29.301  0.00  0.00     0.029 C 
ENDBRANCH  23  24
ENDBRANCH  21  23
ENDBRANCH   1  21
TORSDOF 5
ENDMDL
