MODEL 1
REMARK VINA RESULT:      88.8      0.000      0.000
REMARK  3 active torsions:
REMARK  status: ('A' for Active; 'I' for Inactive)
REMARK    1  A    between atoms: C_4  and  C_1 
REMARK    2  A    between atoms: C_12  and  N_3 
REMARK    3  A    between atoms: C_14  and  C_7 
ROOT
ATOM      1  N   UNL d   1     -50.579  27.257  34.106  0.00  0.00    -0.165 NA
ATOM      2  N   UNL d   1     -50.810  26.502  33.920  0.00  0.00    -0.230 N 
ATOM      3  C   UNL d   1     -49.786  27.300  34.164  0.00  0.00     0.108 A 
ATOM      4  C   UNL d   1     -50.101  26.037  33.857  0.00  0.00     0.084 A 
ATOM      5  C   UNL d   1     -49.464  26.534  34.009  0.00  0.00     0.040 A 
ENDROOT
BRANCH   3   6
ATOM      6  C   UNL d   1     -49.390  27.993  34.346  0.00  0.00     0.083 A 
ATOM      7  C   UNL d   1     -49.587  28.693  33.944  0.00  0.00     0.302 A 
ATOM      8  O   UNL d   1     -49.184  29.399  34.128  0.00  0.00    -0.273 OA
ATOM      9  O   UNL d   1     -50.184  28.680  33.364  0.00  0.00    -0.259 OA
ATOM     10  C   UNL d   1     -48.597  29.405  34.701  0.00  0.00     0.103 A 
ATOM     11  C   UNL d   1     -48.400  28.705  35.103  0.00  0.00     0.023 A 
ATOM     12  C   UNL d   1     -48.209  30.101  34.874  0.00  0.00     0.025 A 
ATOM     13  C   UNL d   1     -48.792  28.006  34.927  0.00  0.00     0.009 A 
ATOM     14  C   UNL d   1     -47.817  28.707  35.672  0.00  0.00     0.002 A 
ATOM     15  C   UNL d   1     -47.425  29.406  35.848  0.00  0.00     0.000 A 
ATOM     16  C   UNL d   1     -47.622  30.107  35.447  0.00  0.00     0.002 A 
ENDBRANCH   3   6
BRANCH   2  17
ATOM     17  C   UNL d   1     -51.586  26.265  33.819  0.00  0.00     0.083 A 
ATOM     18  C   UNL d   1     -52.114  26.755  33.417  0.00  0.00     0.019 A 
ATOM     19  C   UNL d   1     -52.904  26.522  33.310  0.00  0.00     0.002 A 
ATOM     20  C   UNL d   1     -53.156  25.783  33.616  0.00  0.00     0.000 A 
ATOM     21  C   UNL d   1     -52.627  25.294  34.018  0.00  0.00     0.002 A 
ATOM     22  C   UNL d   1     -51.832  25.533  34.123  0.00  0.00     0.019 A 
ENDBRANCH   2  17
BRANCH   4  23
ATOM     23  C   UNL d   1     -50.049  25.248  33.681  0.00  0.00     0.018 A 
ATOM     24  C   UNL d   1     -50.720  24.800  33.554  0.00  0.00     0.002 A 
ATOM     25  C   UNL d   1     -50.666  24.002  33.376  0.00  0.00     0.000 A 
ATOM     26  C   UNL d   1     -49.929  23.633  33.320  0.00  0.00     0.000 A 
ATOM     27  C   UNL d   1     -49.245  24.082  33.447  0.00  0.00     0.000 A 
ATOM     28  C   UNL d   1     -49.308  24.893  33.628  0.00  0.00     0.002 A 
ENDBRANCH   4  23
TORSDOF 3
ENDMDL
MODEL 2
REMARK VINA RESULT:      90.3      1.535      5.541
REMARK  3 active torsions:
REMARK  status: ('A' for Active; 'I' for Inactive)
REMARK    1  A    between atoms: C_4  and  C_1 
REMARK    2  A    between atoms: C_12  and  N_3 
REMARK    3  A    between atoms: C_14  and  C_7 
ROOT
ATOM      1  N   UNL d   1     -48.381  28.715  35.144  0.00  0.00    -0.165 NA
ATOM      2  N   UNL d   1     -48.065  29.456  35.239  0.00  0.00    -0.230 N 
ATOM      3  C   UNL d   1     -48.837  28.688  34.491  0.00  0.00     0.108 A 
ATOM      4  C   UNL d   1     -48.347  29.928  34.591  0.00  0.00     0.084 A 
ATOM      5  C   UNL d   1     -48.827  29.450  34.126  0.00  0.00     0.040 A 
ENDROOT
BRANCH   3   6
ATOM      6  C   UNL d   1     -49.230  28.012  34.251  0.00  0.00     0.083 A 
ATOM      7  C   UNL d   1     -48.824  27.287  34.232  0.00  0.00     0.302 A 
ATOM      8  O   UNL d   1     -49.223  26.598  33.987  0.00  0.00    -0.273 OA
ATOM      9  O   UNL d   1     -48.022  27.260  34.459  0.00  0.00    -0.259 OA
ATOM     10  C   UNL d   1     -50.012  26.632  33.766  0.00  0.00     0.103 A 
ATOM     11  C   UNL d   1     -50.419  27.357  33.784  0.00  0.00     0.023 A 
ATOM     12  C   UNL d   1     -50.394  25.953  33.528  0.00  0.00     0.025 A 
ATOM     13  C   UNL d   1     -50.032  28.039  34.024  0.00  0.00     0.009 A 
ATOM     14  C   UNL d   1     -51.203  27.394  33.564  0.00  0.00     0.002 A 
ATOM     15  C   UNL d   1     -51.590  26.711  33.324  0.00  0.00     0.000 A 
ATOM     16  C   UNL d   1     -51.183  25.987  33.306  0.00  0.00     0.002 A 
ENDBRANCH   3   6
BRANCH   2  17
ATOM     17  C   UNL d   1     -47.572  29.674  35.853  0.00  0.00     0.083 A 
ATOM     18  C   UNL d   1     -46.753  29.653  35.748  0.00  0.00     0.019 A 
ATOM     19  C   UNL d   1     -46.245  29.873  36.366  0.00  0.00     0.002 A 
ATOM     20  C   UNL d   1     -46.575  30.118  37.098  0.00  0.00     0.000 A 
ATOM     21  C   UNL d   1     -47.393  30.139  37.202  0.00  0.00     0.002 A 
ATOM     22  C   UNL d   1     -47.901  29.916  36.575  0.00  0.00     0.019 A 
ENDBRANCH   2  17
BRANCH   4  23
ATOM     23  C   UNL d   1     -48.181  30.708  34.448  0.00  0.00     0.018 A 
ATOM     24  C   UNL d   1     -47.411  30.966  34.369  0.00  0.00     0.002 A 
ATOM     25  C   UNL d   1     -47.243  31.756  34.224  0.00  0.00     0.000 A 
ATOM     26  C   UNL d   1     -47.854  32.308  34.154  0.00  0.00     0.000 A 
ATOM     27  C   UNL d   1     -48.638  32.052  34.233  0.00  0.00     0.000 A 
ATOM     28  C   UNL d   1     -48.800  31.248  34.381  0.00  0.00     0.002 A 
ENDBRANCH   4  23
TORSDOF 3
ENDMDL
