MODEL 1
REMARK VINA RESULT:      -3.4      0.000      0.000
REMARK  6 active torsions:
REMARK  status: ('A' for Active; 'I' for Inactive)
REMARK    1  A    between atoms: C_18  and  N_5 
REMARK    2  A    between atoms: S_11  and  C_6 
REMARK    3  A    between atoms: C_10  and  C_12 
REMARK    4  A    between atoms: C_15  and  S_11 
REMARK    5  A    between atoms: C_12  and  C_15 
REMARK    6  A    between atoms: C_21  and  C_18 
ROOT
ATOM      1  C   UNL d   1      59.864  -2.544  28.968  0.00  0.00     0.081 A 
ATOM      2  C   UNL d   1      59.055  -2.603  29.051  0.00  0.00     0.117 A 
ATOM      3  N   UNL d   1      58.613  -1.946  29.280  0.00  0.00    -0.215 NA
ATOM      4  C   UNL d   1      60.231  -1.787  29.125  0.00  0.00     0.268 A 
ATOM      5  N   UNL d   1      59.772  -1.158  29.349  0.00  0.00    -0.253 N 
ATOM      6  C   UNL d   1      59.007  -1.234  29.422  0.00  0.00     0.182 A 
ATOM      7  S   UNL d   1      58.869  -3.373  28.868  0.00  0.00    -0.068 SA
ATOM      8  C   UNL d   1      60.145  -3.245  28.746  0.00  0.00     0.013 A 
ATOM      9  C   UNL d   1      59.498  -3.784  28.681  0.00  0.00     0.031 A 
ATOM     10  O   UNL d   1      61.085  -1.710  29.041  0.00  0.00    -0.267 OA
ATOM     11  C   UNL d   1      60.965  -3.395  28.606  0.00  0.00     0.001 C 
ATOM     12  C   UNL d   1      59.537  -4.598  28.459  0.00  0.00     0.007 C 
ENDROOT
BRANCH   6  13
ATOM     13  S   UNL d   1      58.544  -0.578  29.654  0.00  0.00    -0.046 SA
BRANCH  13  14
ATOM     14  C   UNL d   1      58.154  -0.576  30.401  0.00  0.00     0.081 C 
BRANCH  14  15
ATOM     15  C   UNL d   1      57.576  -0.027  30.579  0.00  0.00     0.208 C 
ATOM     16  O   UNL d   1      57.351   0.551  30.022  0.00  0.00    -0.285 OA
BRANCH  15  17
ATOM     17  C   UNL d   1      57.215  -0.023  31.276  0.00  0.00     0.069 A 
ATOM     18  S   UNL d   1      57.046  -0.735  31.706  0.00  0.00    -0.083 SA
ATOM     19  C   UNL d   1      56.667  -0.524  32.407  0.00  0.00     0.035 A 
ATOM     20  C   UNL d   1      56.586   0.288  32.447  0.00  0.00     0.008 A 
ATOM     21  C   UNL d   1      56.901   0.604  31.791  0.00  0.00     0.010 A 
ENDBRANCH  15  17
ENDBRANCH  14  15
ENDBRANCH  13  14
ENDBRANCH   6  13
BRANCH   5  22
ATOM     22  C   UNL d   1      60.099  -0.430  29.504  0.00  0.00     0.085 C 
BRANCH  22  23
ATOM     23  C   UNL d   1      60.834  -0.362  29.873  0.00  0.00     0.019 C 
ATOM     24  C   UNL d   1      61.130   0.365  30.136  0.00  0.00     0.002 C 
ENDBRANCH  22  23
ENDBRANCH   5  22
TORSDOF 6
ENDMDL
MODEL 2
REMARK VINA RESULT:      -3.1      1.685      4.519
REMARK  6 active torsions:
REMARK  status: ('A' for Active; 'I' for Inactive)
REMARK    1  A    between atoms: C_18  and  N_5 
REMARK    2  A    between atoms: S_11  and  C_6 
REMARK    3  A    between atoms: C_10  and  C_12 
REMARK    4  A    between atoms: C_15  and  S_11 
REMARK    5  A    between atoms: C_12  and  C_15 
REMARK    6  A    between atoms: C_21  and  C_18 
ROOT
ATOM      1  C   UNL d   1      57.000  -0.080  32.734  0.00  0.00     0.081 A 
ATOM      2  C   UNL d   1      56.655  -0.432  32.084  0.00  0.00     0.117 A 
ATOM      3  N   UNL d   1      57.034  -0.409  31.353  0.00  0.00    -0.215 NA
ATOM      4  C   UNL d   1      57.757   0.306  32.630  0.00  0.00     0.268 A 
ATOM      5  N   UNL d   1      58.106   0.312  31.899  0.00  0.00    -0.253 N 
ATOM      6  C   UNL d   1      57.764  -0.026  31.295  0.00  0.00     0.182 A 
ATOM      7  S   UNL d   1      55.954  -0.747  32.348  0.00  0.00    -0.068 SA
ATOM      8  C   UNL d   1      56.526  -0.182  33.354  0.00  0.00     0.013 A 
ATOM      9  C   UNL d   1      55.846  -0.616  33.103  0.00  0.00     0.031 A 
ATOM     10  O   UNL d   1      58.132   0.682  33.308  0.00  0.00    -0.267 OA
ATOM     11  C   UNL d   1      56.702   0.109  34.128  0.00  0.00     0.001 C 
ATOM     12  C   UNL d   1      55.191  -0.852  33.580  0.00  0.00     0.007 C 
ENDROOT
BRANCH   6  13
ATOM     13  S   UNL d   1      58.134  -0.013  30.546  0.00  0.00    -0.046 SA
BRANCH  13  14
ATOM     14  C   UNL d   1      58.020  -0.648  30.004  0.00  0.00     0.081 C 
BRANCH  14  15
ATOM     15  C   UNL d   1      58.508  -0.750  29.358  0.00  0.00     0.208 C 
ATOM     16  O   UNL d   1      58.687  -0.111  28.853  0.00  0.00    -0.285 OA
BRANCH  15  17
ATOM     17  C   UNL d   1      58.823  -1.450  29.188  0.00  0.00     0.069 A 
ATOM     18  S   UNL d   1      59.624  -1.535  28.920  0.00  0.00    -0.083 SA
ATOM     19  C   UNL d   1      59.765  -2.338  28.797  0.00  0.00     0.035 A 
ATOM     20  C   UNL d   1      59.094  -2.770  28.974  0.00  0.00     0.008 A 
ATOM     21  C   UNL d   1      58.526  -2.267  29.206  0.00  0.00     0.010 A 
ENDBRANCH  15  17
ENDBRANCH  14  15
ENDBRANCH  13  14
ENDBRANCH   6  13
BRANCH   5  22
ATOM     22  C   UNL d   1      58.825   0.673  31.777  0.00  0.00     0.085 C 
BRANCH  22  23
ATOM     23  C   UNL d   1      59.420   0.642  32.348  0.00  0.00     0.019 C 
ATOM     24  C   UNL d   1      60.223   0.682  32.150  0.00  0.00     0.002 C 
ENDBRANCH  22  23
ENDBRANCH   5  22
TORSDOF 6
ENDMDL
