MODEL 1
REMARK VINA RESULT:      -9.0      0.000      0.000
REMARK  3 active torsions:
REMARK  status: ('A' for Active; 'I' for Inactive)
REMARK    1  A    between atoms: N_2  and  C_12 
REMARK    2  A    between atoms: N_10  and  C_6 
REMARK       I    between atoms: C_11  and  N_10 
REMARK    3  A    between atoms: C_12  and  C_11 
ROOT
ATOM      1  C   UNL d   1     -47.259  11.643  23.537  0.00  0.00     0.283 A 
ATOM      2  N   UNL d   1     -46.495  11.280  23.559  0.00  0.00    -0.169 NA
ATOM      3  C   UNL d   1     -47.097  12.452  23.302  0.00  0.00     0.080 A 
ATOM      4  C   UNL d   1     -45.948  11.830  23.356  0.00  0.00     0.282 A 
ATOM      5  C   UNL d   1     -47.608  13.085  23.182  0.00  0.00     0.089 A 
ATOM      6  C   UNL d   1     -46.283  12.524  23.202  0.00  0.00     0.064 A 
ATOM      7  O   UNL d   1     -48.034  11.331  23.698  0.00  0.00    -0.265 OA
ATOM      8  O   UNL d   1     -45.122  11.661  23.320  0.00  0.00    -0.265 OA
ATOM      9  C   UNL d   1     -47.288  13.821  22.951  0.00  0.00     0.019 A 
ATOM     10  C   UNL d   1     -45.976  13.262  22.972  0.00  0.00     0.005 A 
ATOM     11  C   UNL d   1     -46.476  13.874  22.856  0.00  0.00     0.002 A 
ENDROOT
BRANCH   5  12
ATOM     12  N   UNL d   1     -48.483  13.008  23.289  0.00  0.00    -0.207 NA
ATOM     13  C   UNL d   1     -48.947  13.636  23.006  0.00  0.00     0.297 C 
ATOM     14  O   UNL d   1     -48.635  14.288  22.649  0.00  0.00    -0.264 OA
BRANCH  13  15
ATOM     15  C   UNL d   1     -49.762  13.558  23.109  0.00  0.00     0.148 C 
BRANCH  15  16
ATOM     16  N   UNL d   1     -50.249  13.782  22.490  0.00  0.00    -0.236 N 
ATOM     17  C   UNL d   1     -50.463  13.372  21.792  0.00  0.00     0.267 A 
ATOM     18  C   UNL d   1     -50.977  13.879  21.363  0.00  0.00     0.066 A 
ATOM     19  O   UNL d   1     -50.212  12.600  21.565  0.00  0.00    -0.267 OA
ATOM     20  C   UNL d   1     -51.064  14.569  21.794  0.00  0.00     0.066 A 
ATOM     21  C   UNL d   1     -50.608  14.509  22.501  0.00  0.00     0.267 A 
ATOM     22  O   UNL d   1     -50.516  15.068  23.119  0.00  0.00    -0.267 OA
ENDBRANCH  15  16
ENDBRANCH  13  15
ENDBRANCH   5  12
TORSDOF 3
ENDMDL
MODEL 2
REMARK VINA RESULT:      -7.6      1.168      4.403
REMARK  3 active torsions:
REMARK  status: ('A' for Active; 'I' for Inactive)
REMARK    1  A    between atoms: N_2  and  C_12 
REMARK    2  A    between atoms: N_10  and  C_6 
REMARK       I    between atoms: C_11  and  N_10 
REMARK    3  A    between atoms: C_12  and  C_11 
ROOT
ATOM      1  C   UNL d   1     -49.285  14.811  22.634  0.00  0.00     0.283 A 
ATOM      2  N   UNL d   1     -49.941  15.200  22.269  0.00  0.00    -0.169 NA
ATOM      3  C   UNL d   1     -49.374  13.991  22.400  0.00  0.00     0.080 A 
ATOM      4  C   UNL d   1     -50.366  14.653  21.864  0.00  0.00     0.282 A 
ATOM      5  C   UNL d   1     -48.913  13.333  22.575  0.00  0.00     0.089 A 
ATOM      6  C   UNL d   1     -50.048  13.937  21.930  0.00  0.00     0.064 A 
ATOM      7  O   UNL d   1     -48.657  15.109  23.124  0.00  0.00    -0.265 OA
ATOM      8  O   UNL d   1     -51.064  14.846  21.430  0.00  0.00    -0.265 OA
ATOM      9  C   UNL d   1     -49.139  12.590  22.265  0.00  0.00     0.019 A 
ATOM     10  C   UNL d   1     -50.263  13.193  21.627  0.00  0.00     0.005 A 
ATOM     11  C   UNL d   1     -49.812  12.557  21.800  0.00  0.00     0.002 A 
ENDROOT
BRANCH   5  12
ATOM     12  N   UNL d   1     -48.188  13.389  23.080  0.00  0.00    -0.207 NA
ATOM     13  C   UNL d   1     -47.589  12.834  22.930  0.00  0.00     0.297 C 
ATOM     14  O   UNL d   1     -47.647  12.267  22.360  0.00  0.00    -0.264 OA
BRANCH  13  15
ATOM     15  C   UNL d   1     -46.917  12.891  23.404  0.00  0.00     0.148 C 
BRANCH  15  16
ATOM     16  N   UNL d   1     -46.190  12.746  23.055  0.00  0.00    -0.236 N 
ATOM     17  C   UNL d   1     -45.732  13.219  22.539  0.00  0.00     0.267 A 
ATOM     18  C   UNL d   1     -45.037  12.781  22.363  0.00  0.00     0.066 A 
ATOM     19  O   UNL d   1     -45.931  13.987  22.250  0.00  0.00    -0.267 OA
ATOM     20  C   UNL d   1     -45.083  12.070  22.764  0.00  0.00     0.066 A 
ATOM     21  C   UNL d   1     -45.805  12.047  23.199  0.00  0.00     0.267 A 
ATOM     22  O   UNL d   1     -46.105  11.440  23.694  0.00  0.00    -0.267 OA
ENDBRANCH  15  16
ENDBRANCH  13  15
ENDBRANCH   5  12
TORSDOF 3
ENDMDL
MODEL 3
REMARK VINA RESULT:      -6.2      1.231      4.128
REMARK  3 active torsions:
REMARK  status: ('A' for Active; 'I' for Inactive)
REMARK    1  A    between atoms: N_2  and  C_12 
REMARK    2  A    between atoms: N_10  and  C_6 
REMARK       I    between atoms: C_11  and  N_10 
REMARK    3  A    between atoms: C_12  and  C_11 
ROOT
ATOM      1  C   UNL d   1     -49.438  12.645  21.983  0.00  0.00     0.283 A 
ATOM      2  N   UNL d   1     -50.132  12.687  21.501  0.00  0.00    -0.169 NA
ATOM      3  C   UNL d   1     -49.315  13.454  22.240  0.00  0.00     0.080 A 
ATOM      4  C   UNL d   1     -50.382  13.449  21.484  0.00  0.00     0.282 A 
ATOM      5  C   UNL d   1     -48.731  13.778  22.720  0.00  0.00     0.089 A 
ATOM      6  C   UNL d   1     -49.914  13.914  21.912  0.00  0.00     0.064 A 
ATOM      7  O   UNL d   1     -48.942  11.988  22.196  0.00  0.00    -0.265 OA
ATOM      8  O   UNL d   1     -51.064  13.696  21.053  0.00  0.00    -0.265 OA
ATOM      9  C   UNL d   1     -48.752  14.598  22.877  0.00  0.00     0.019 A 
ATOM     10  C   UNL d   1     -49.923  14.729  22.076  0.00  0.00     0.005 A 
ATOM     11  C   UNL d   1     -49.355  15.040  22.543  0.00  0.00     0.002 A 
ENDROOT
BRANCH   5  12
ATOM     12  N   UNL d   1     -48.087  13.285  23.073  0.00  0.00    -0.207 NA
ATOM     13  C   UNL d   1     -47.352  13.658  23.179  0.00  0.00     0.297 C 
ATOM     14  O   UNL d   1     -47.215  14.426  22.978  0.00  0.00    -0.264 OA
BRANCH  13  15
ATOM     15  C   UNL d   1     -46.756  13.193  23.508  0.00  0.00     0.148 C 
BRANCH  15  16
ATOM     16  N   UNL d   1     -46.107  13.016  23.040  0.00  0.00    -0.236 N 
ATOM     17  C   UNL d   1     -45.609  13.517  22.591  0.00  0.00     0.267 A 
ATOM     18  C   UNL d   1     -45.037  13.022  22.226  0.00  0.00     0.066 A 
ATOM     19  O   UNL d   1     -45.670  14.355  22.520  0.00  0.00    -0.267 OA
ATOM     20  C   UNL d   1     -45.192  12.252  22.451  0.00  0.00     0.066 A 
ATOM     21  C   UNL d   1     -45.863  12.246  22.962  0.00  0.00     0.267 A 
ATOM     22  O   UNL d   1     -46.237  11.596  23.337  0.00  0.00    -0.267 OA
ENDBRANCH  15  16
ENDBRANCH  13  15
ENDBRANCH   5  12
TORSDOF 3
ENDMDL
MODEL 4
REMARK VINA RESULT:      -6.2      8.341     10.200
REMARK  3 active torsions:
REMARK  status: ('A' for Active; 'I' for Inactive)
REMARK    1  A    between atoms: N_2  and  C_12 
REMARK    2  A    between atoms: N_10  and  C_6 
REMARK       I    between atoms: C_11  and  N_10 
REMARK    3  A    between atoms: C_12  and  C_11 
ROOT
ATOM      1  C   UNL d   1     -38.945  13.408  17.367  0.00  0.00     0.283 A 
ATOM      2  N   UNL d   1     -38.466  13.262  16.686  0.00  0.00    -0.169 NA
ATOM      3  C   UNL d   1     -39.248  14.201  17.242  0.00  0.00     0.080 A 
ATOM      4  C   UNL d   1     -38.493  13.911  16.215  0.00  0.00     0.282 A 
ATOM      5  C   UNL d   1     -39.746  14.661  17.706  0.00  0.00     0.089 A 
ATOM      6  C   UNL d   1     -38.947  14.472  16.525  0.00  0.00     0.064 A 
ATOM      7  O   UNL d   1     -39.121  12.924  18.044  0.00  0.00    -0.265 OA
ATOM      8  O   UNL d   1     -38.076  13.960  15.482  0.00  0.00    -0.265 OA
ATOM      9  C   UNL d   1     -39.951  15.426  17.439  0.00  0.00     0.019 A 
ATOM     10  C   UNL d   1     -39.157  15.235  16.270  0.00  0.00     0.005 A 
ATOM     11  C   UNL d   1     -39.642  15.679  16.723  0.00  0.00     0.002 A 
ENDROOT
BRANCH   5  12
ATOM     12  N   UNL d   1     -40.070  14.371  18.477  0.00  0.00    -0.207 NA
ATOM     13  C   UNL d   1     -40.257  14.951  19.041  0.00  0.00     0.297 C 
ATOM     14  O   UNL d   1     -40.156  15.740  18.912  0.00  0.00    -0.264 OA
BRANCH  13  15
ATOM     15  C   UNL d   1     -40.559  14.673  19.757  0.00  0.00     0.148 C 
BRANCH  15  16
ATOM     16  N   UNL d   1     -40.366  15.085  20.438  0.00  0.00    -0.236 N 
ATOM     17  C   UNL d   1     -39.662  15.086  20.891  0.00  0.00     0.267 A 
ATOM     18  C   UNL d   1     -39.787  15.618  21.529  0.00  0.00     0.066 A 
ATOM     19  O   UNL d   1     -38.963  14.640  20.735  0.00  0.00    -0.267 OA
ATOM     20  C   UNL d   1     -40.542  15.922  21.457  0.00  0.00     0.066 A 
ATOM     21  C   UNL d   1     -40.906  15.589  20.773  0.00  0.00     0.267 A 
ATOM     22  O   UNL d   1     -41.674  15.725  20.464  0.00  0.00    -0.267 OA
ENDBRANCH  15  16
ENDBRANCH  13  15
ENDBRANCH   5  12
TORSDOF 3
ENDMDL
MODEL 5
REMARK VINA RESULT:      -6.2      8.866      9.683
REMARK  3 active torsions:
REMARK  status: ('A' for Active; 'I' for Inactive)
REMARK    1  A    between atoms: N_2  and  C_12 
REMARK    2  A    between atoms: N_10  and  C_6 
REMARK       I    between atoms: C_11  and  N_10 
REMARK    3  A    between atoms: C_12  and  C_11 
ROOT
ATOM      1  C   UNL d   1     -38.974  14.141  20.949  0.00  0.00     0.283 A 
ATOM      2  N   UNL d   1     -38.693  14.191  21.745  0.00  0.00    -0.169 NA
ATOM      3  C   UNL d   1     -39.586  14.740  20.906  0.00  0.00     0.080 A 
ATOM      4  C   UNL d   1     -39.106  14.765  22.123  0.00  0.00     0.282 A 
ATOM      5  C   UNL d   1     -40.070  14.965  20.281  0.00  0.00     0.089 A 
ATOM      6  C   UNL d   1     -39.635  15.098  21.646  0.00  0.00     0.064 A 
ATOM      7  O   UNL d   1     -38.743  13.638  20.303  0.00  0.00    -0.265 OA
ATOM      8  O   UNL d   1     -38.972  14.968  22.931  0.00  0.00    -0.265 OA
ATOM      9  C   UNL d   1     -40.626  15.577  20.404  0.00  0.00     0.019 A 
ATOM     10  C   UNL d   1     -40.192  15.706  21.756  0.00  0.00     0.005 A 
ATOM     11  C   UNL d   1     -40.660  15.922  21.146  0.00  0.00     0.002 A 
ENDROOT
BRANCH   5  12
ATOM     12  N   UNL d   1     -40.018  14.581  19.486  0.00  0.00    -0.207 NA
ATOM     13  C   UNL d   1     -40.286  15.029  18.840  0.00  0.00     0.297 C 
ATOM     14  O   UNL d   1     -40.581  15.775  18.914  0.00  0.00    -0.264 OA
BRANCH  13  15
ATOM     15  C   UNL d   1     -40.235  14.665  18.102  0.00  0.00     0.148 C 
BRANCH  15  16
ATOM     16  N   UNL d   1     -40.075  15.138  17.452  0.00  0.00    -0.236 N 
ATOM     17  C   UNL d   1     -39.358  15.488  17.200  0.00  0.00     0.267 A 
ATOM     18  C   UNL d   1     -39.532  15.913  16.496  0.00  0.00     0.066 A 
ATOM     19  O   UNL d   1     -38.607  15.425  17.578  0.00  0.00    -0.267 OA
ATOM     20  C   UNL d   1     -40.328  15.817  16.338  0.00  0.00     0.066 A 
ATOM     21  C   UNL d   1     -40.670  15.331  16.937  0.00  0.00     0.267 A 
ATOM     22  O   UNL d   1     -41.464  15.074  17.020  0.00  0.00    -0.267 OA
ENDBRANCH  15  16
ENDBRANCH  13  15
ENDBRANCH   5  12
TORSDOF 3
ENDMDL
