MODEL 1
REMARK VINA RESULT:      -3.3      0.000      0.000
REMARK  3 active torsions:
REMARK  status: ('A' for Active; 'I' for Inactive)
REMARK    1  A    between atoms: N_2  and  S_1 
REMARK    2  A    between atoms: C_3  and  S_1 
REMARK    3  A    between atoms: O_17  and  C_11 
ROOT
ATOM      1  S   UNL d   1     -41.732-123.197 -50.077  0.00  0.00     0.274 S 
ATOM      2  O   UNL d   1     -42.304-122.588 -50.206  0.00  0.00    -0.199 OA
ATOM      3  O   UNL d   1     -41.157-123.799 -49.971  0.00  0.00    -0.199 OA
ENDROOT
BRANCH   1   4
ATOM      4  N   UNL d   1     -41.516-123.150 -50.881  0.00  0.00    -0.212 N 
ATOM      5  C   UNL d   1     -41.331-123.799 -51.338  0.00  0.00     0.193 A 
ATOM      6  N   UNL d   1     -41.146-123.494 -52.120  0.00  0.00    -0.223 NA
ATOM      7  C   UNL d   1     -41.226-122.682 -52.102  0.00  0.00     0.100 A 
ATOM      8  C   UNL d   1     -41.461-122.459 -51.318  0.00  0.00     0.094 A 
ATOM      9  C   UNL d   1     -41.123-122.100 -52.679  0.00  0.00     0.021 A 
ATOM     10  C   UNL d   1     -41.583-121.662 -51.145  0.00  0.00     0.020 A 
ATOM     11  C   UNL d   1     -41.477-121.088 -51.728  0.00  0.00     0.002 A 
ATOM     12  C   UNL d   1     -41.250-121.290 -52.491  0.00  0.00     0.002 A 
ENDBRANCH   1   4
BRANCH   1  13
ATOM     13  C   UNL d   1     -41.961-123.239 -49.242  0.00  0.00     0.127 A 
ATOM     14  C   UNL d   1     -41.428-123.003 -48.679  0.00  0.00     0.026 A 
ATOM     15  C   UNL d   1     -41.675-123.053 -47.872  0.00  0.00     0.059 A 
ATOM     16 CL   UNL d   1     -41.124-122.808 -47.281  0.00  0.00    -0.082 Cl
ATOM     17  C   UNL d   1     -42.422-123.329 -47.670  0.00  0.00     0.013 A 
ATOM     18  C   UNL d   1     -42.950-123.566 -48.277  0.00  0.00     0.026 A 
ATOM     19  C   UNL d   1     -42.714-123.518 -49.062  0.00  0.00     0.106 A 
BRANCH  19  20
ATOM     20  O   UNL d   1     -43.265-123.763 -49.654  0.00  0.00    -0.327 OA
ATOM     21  C   UNL d   1     -44.062-123.810 -49.515  0.00  0.00     0.181 C 
ENDBRANCH  19  20
ENDBRANCH   1  13
TORSDOF 3
ENDMDL
MODEL 2
REMARK VINA RESULT:      -3.0      1.487      3.623
REMARK  3 active torsions:
REMARK  status: ('A' for Active; 'I' for Inactive)
REMARK    1  A    between atoms: N_2  and  S_1 
REMARK    2  A    between atoms: C_3  and  S_1 
REMARK    3  A    between atoms: O_17  and  C_11 
ROOT
ATOM      1  S   UNL d   1     -42.268-122.586 -50.588  0.00  0.00     0.274 S 
ATOM      2  O   UNL d   1     -41.674-123.187 -50.616  0.00  0.00    -0.199 OA
ATOM      3  O   UNL d   1     -42.869-122.002 -50.543  0.00  0.00    -0.199 OA
ENDROOT
BRANCH   1   4
ATOM      4  N   UNL d   1     -42.643-123.001 -49.970  0.00  0.00    -0.212 N 
ATOM      5  C   UNL d   1     -43.370-123.363 -50.043  0.00  0.00     0.193 A 
ATOM      6  N   UNL d   1     -43.537-123.718 -49.279  0.00  0.00    -0.223 NA
ATOM      7  C   UNL d   1     -42.910-123.558 -48.781  0.00  0.00     0.100 A 
ATOM      8  C   UNL d   1     -42.340-123.103 -49.215  0.00  0.00     0.094 A 
ATOM      9  C   UNL d   1     -42.762-123.753 -47.992  0.00  0.00     0.021 A 
ATOM     10  C   UNL d   1     -41.647-122.863 -48.840  0.00  0.00     0.020 A 
ATOM     11  C   UNL d   1     -41.508-123.063 -48.052  0.00  0.00     0.002 A 
ATOM     12  C   UNL d   1     -42.051-123.503 -47.620  0.00  0.00     0.002 A 
ENDBRANCH   1   4
BRANCH   1  13
ATOM     13  C   UNL d   1     -41.872-122.161 -51.231  0.00  0.00     0.127 A 
ATOM     14  C   UNL d   1     -41.695-121.376 -51.128  0.00  0.00     0.026 A 
ATOM     15  C   UNL d   1     -41.310-120.983 -51.769  0.00  0.00     0.059 A 
ATOM     16 CL   UNL d   1     -41.123-120.165 -51.668  0.00  0.00    -0.082 Cl
ATOM     17  C   UNL d   1     -41.123-121.380 -52.464  0.00  0.00     0.013 A 
ATOM     18  C   UNL d   1     -41.319-122.192 -52.539  0.00  0.00     0.026 A 
ATOM     19  C   UNL d   1     -41.694-122.577 -51.918  0.00  0.00     0.106 A 
BRANCH  19  20
ATOM     20  O   UNL d   1     -41.881-123.395 -52.019  0.00  0.00    -0.327 OA
ATOM     21  C   UNL d   1     -41.705-123.802 -52.697  0.00  0.00     0.181 C 
ENDBRANCH  19  20
ENDBRANCH   1  13
TORSDOF 3
ENDMDL
MODEL 3
REMARK VINA RESULT:      -2.1      1.775      2.615
REMARK  3 active torsions:
REMARK  status: ('A' for Active; 'I' for Inactive)
REMARK    1  A    between atoms: N_2  and  S_1 
REMARK    2  A    between atoms: C_3  and  S_1 
REMARK    3  A    between atoms: O_17  and  C_11 
ROOT
ATOM      1  S   UNL d   1     -41.761-122.978 -52.162  0.00  0.00     0.274 S 
ATOM      2  O   UNL d   1     -42.393-122.462 -52.384  0.00  0.00    -0.199 OA
ATOM      3  O   UNL d   1     -41.129-123.493 -51.964  0.00  0.00    -0.199 OA
ENDROOT
BRANCH   1   4
ATOM      4  N   UNL d   1     -41.601-123.112 -52.969  0.00  0.00    -0.212 N 
ATOM      5  C   UNL d   1     -41.134-123.721 -53.243  0.00  0.00     0.193 A 
ATOM      6  N   UNL d   1     -41.123-123.646 -54.099  0.00  0.00    -0.223 NA
ATOM      7  C   UNL d   1     -41.579-123.001 -54.304  0.00  0.00     0.100 A 
ATOM      8  C   UNL d   1     -41.884-122.658 -53.590  0.00  0.00     0.094 A 
ATOM      9  C   UNL d   1     -41.769-122.663 -55.033  0.00  0.00     0.021 A 
ATOM     10  C   UNL d   1     -42.368-121.993 -53.638  0.00  0.00     0.020 A 
ATOM     11  C   UNL d   1     -42.552-121.662 -54.371  0.00  0.00     0.002 A 
ATOM     12  C   UNL d   1     -42.263-121.984 -55.070  0.00  0.00     0.002 A 
ENDBRANCH   1   4
BRANCH   1  13
ATOM     13  C   UNL d   1     -41.934-122.833 -51.325  0.00  0.00     0.127 A 
ATOM     14  C   UNL d   1     -42.364-123.384 -50.915  0.00  0.00     0.026 A 
ATOM     15  C   UNL d   1     -42.520-123.222 -50.101  0.00  0.00     0.059 A 
ATOM     16 CL   UNL d   1     -42.968-123.792 -49.668  0.00  0.00    -0.082 Cl
ATOM     17  C   UNL d   1     -42.246-122.535 -49.742  0.00  0.00     0.013 A 
ATOM     18  C   UNL d   1     -41.803-121.984 -50.194  0.00  0.00     0.026 A 
ATOM     19  C   UNL d   1     -41.650-122.139 -50.986  0.00  0.00     0.106 A 
BRANCH  19  20
ATOM     20  O   UNL d   1     -41.201-121.569 -51.418  0.00  0.00    -0.327 OA
ATOM     21  C   UNL d   1     -41.123-120.800 -51.175  0.00  0.00     0.181 C 
ENDBRANCH  19  20
ENDBRANCH   1  13
TORSDOF 3
ENDMDL
MODEL 4
REMARK VINA RESULT:      -1.2      2.700      4.511
REMARK  3 active torsions:
REMARK  status: ('A' for Active; 'I' for Inactive)
REMARK    1  A    between atoms: N_2  and  S_1 
REMARK    2  A    between atoms: C_3  and  S_1 
REMARK    3  A    between atoms: O_17  and  C_11 
ROOT
ATOM      1  S   UNL d   1     -41.636-122.143 -52.919  0.00  0.00     0.274 S 
ATOM      2  O   UNL d   1     -41.123-121.523 -53.177  0.00  0.00    -0.199 OA
ATOM      3  O   UNL d   1     -42.140-122.753 -52.640  0.00  0.00    -0.199 OA
ENDROOT
BRANCH   1   4
ATOM      4  N   UNL d   1     -41.478-121.930 -52.129  0.00  0.00    -0.212 N 
ATOM      5  C   UNL d   1     -41.330-121.166 -51.886  0.00  0.00     0.193 A 
ATOM      6  N   UNL d   1     -41.200-121.206 -51.038  0.00  0.00    -0.223 NA
ATOM      7  C   UNL d   1     -41.273-121.986 -50.806  0.00  0.00     0.100 A 
ATOM      8  C   UNL d   1     -41.450-122.449 -51.495  0.00  0.00     0.094 A 
ATOM      9  C   UNL d   1     -41.207-122.356 -50.070  0.00  0.00     0.021 A 
ATOM     10  C   UNL d   1     -41.553-123.263 -51.416  0.00  0.00     0.020 A 
ATOM     11  C   UNL d   1     -41.485-123.623 -50.678  0.00  0.00     0.002 A 
ATOM     12  C   UNL d   1     -41.315-123.187 -50.003  0.00  0.00     0.002 A 
ENDBRANCH   1   4
BRANCH   1  13
ATOM     13  C   UNL d   1     -41.795-122.359 -53.743  0.00  0.00     0.127 A 
ATOM     14  C   UNL d   1     -41.386-122.978 -54.070  0.00  0.00     0.026 A 
ATOM     15  C   UNL d   1     -41.558-123.169 -54.875  0.00  0.00     0.059 A 
ATOM     16 CL   UNL d   1     -41.135-123.813 -55.221  0.00  0.00    -0.082 Cl
ATOM     17  C   UNL d   1     -42.116-122.745 -55.305  0.00  0.00     0.013 A 
ATOM     18  C   UNL d   1     -42.522-122.110 -54.937  0.00  0.00     0.026 A 
ATOM     19  C   UNL d   1     -42.357-121.921 -54.155  0.00  0.00     0.106 A 
BRANCH  19  20
ATOM     20  O   UNL d   1     -42.780-121.277 -53.809  0.00  0.00    -0.327 OA
ATOM     21  C   UNL d   1     -43.381-120.893 -54.193  0.00  0.00     0.181 C 
ENDBRANCH  19  20
ENDBRANCH   1  13
TORSDOF 3
ENDMDL
