MODEL 1
REMARK VINA RESULT:     124.4      0.000      0.000
REMARK  6 active torsions:
REMARK  status: ('A' for Active; 'I' for Inactive)
REMARK    1  A    between atoms: N_7  and  C_1 
REMARK    2  A    between atoms: S_2  and  C_14 
REMARK    3  A    between atoms: N_9  and  S_2 
REMARK       I    between atoms: C_11  and  N_7 
REMARK       I    between atoms: C_10  and  N_8 
REMARK    4  A    between atoms: O_27  and  C_10 
REMARK    5  A    between atoms: C_19  and  C_11 
REMARK    6  A    between atoms: C_30  and  O_27 
ROOT
ATOM      1  C   UNL d   1      42.473 -15.460  38.100  0.00  0.00     0.099 A 
ATOM      2  C   UNL d   1      42.182 -15.522  37.329  0.00  0.00     0.091 A 
ATOM      3  C   UNL d   1      41.813 -14.323  37.791  0.00  0.00     0.049 A 
ATOM      4  C   UNL d   1      41.778 -14.827  37.139  0.00  0.00     0.021 A 
ATOM      5  S   UNL d   1      42.241 -14.707  38.391  0.00  0.00    -0.068 SA
ATOM      6  N   UNL d   1      41.053 -13.335  37.075  0.00  0.00    -0.251 N 
ATOM      7  C   UNL d   1      40.694 -12.595  37.045  0.00  0.00     0.378 C 
ATOM      8  C   UNL d   1      41.450 -13.574  37.763  0.00  0.00     0.091 A 
ATOM      9  C   UNL d   1      42.274 -16.166  36.826  0.00  0.00     0.103 C 
ATOM     10  N   UNL d   1      42.373 -16.812  36.335  0.00  0.00    -0.191 NA
ATOM     11  C   UNL d   1      41.380 -14.583  36.455  0.00  0.00     0.020 A 
ATOM     12  C   UNL d   1      41.021 -13.841  36.428  0.00  0.00     0.085 A 
ATOM     13  O   UNL d   1      40.725 -12.086  37.692  0.00  0.00    -0.237 OA
ENDROOT
BRANCH   1  14
ATOM     14  N   UNL d   1      42.911 -16.037  38.503  0.00  0.00    -0.316 N 
ATOM     15  C   UNL d   1      43.730 -15.928  38.622  0.00  0.00     0.258 C 
ATOM     16  O   UNL d   1      44.097 -15.245  38.335  0.00  0.00    -0.267 OA
ATOM     17  H   UNL d   1      43.043 -16.579  38.822  0.00  0.00     0.169 HD
BRANCH  15  18
ATOM     18  C   UNL d   1      44.167 -16.506  39.026  0.00  0.00     0.056 A 
ATOM     19  C   UNL d   1      44.959 -16.361  39.204  0.00  0.00     0.005 A 
ATOM     20  C   UNL d   1      45.405 -16.935  39.609  0.00  0.00     0.013 A 
ATOM     21  C   UNL d   1      45.044 -17.651  39.829  0.00  0.00     0.104 A 
ATOM     22  C   UNL d   1      44.246 -17.786  39.644  0.00  0.00     0.013 A 
ATOM     23  C   UNL d   1      43.807 -17.218  39.244  0.00  0.00     0.005 A 
BRANCH  21  24
ATOM     24  S   UNL d   1      45.487 -18.227  40.233  0.00  0.00     0.271 S 
ATOM     25  O   UNL d   1      44.896 -18.776  40.024  0.00  0.00    -0.200 OA
ATOM     26  O   UNL d   1      46.070 -17.681  40.440  0.00  0.00    -0.200 OA
BRANCH  24  27
ATOM     27  N   UNL d   1      45.924 -18.800  40.634  0.00  0.00    -0.229 N 
ATOM     28  C   UNL d   1      46.261 -18.713  41.389  0.00  0.00     0.092 A 
ATOM     29  C   UNL d   1      46.646 -19.415  41.576  0.00  0.00     0.021 A 
ATOM     30  C   UNL d   1      46.553 -19.939  40.948  0.00  0.00     0.021 A 
ATOM     31  C   UNL d   1      46.108 -19.557  40.369  0.00  0.00     0.092 A 
ENDBRANCH  24  27
ENDBRANCH  21  24
ENDBRANCH  15  18
ENDBRANCH   1  14
BRANCH   7  32
ATOM     32  O   UNL d   1      40.296 -12.360  36.351  0.00  0.00    -0.257 OA
BRANCH  32  33
ATOM     33  C   UNL d   1      39.526 -12.097  36.402  0.00  0.00     0.128 C 
ATOM     34  C   UNL d   1      38.926 -12.631  36.565  0.00  0.00     0.029 C 
ENDBRANCH  32  33
ENDBRANCH   7  32
TORSDOF 6
ENDMDL
MODEL 2
REMARK VINA RESULT:     126.3      3.573      5.664
REMARK  6 active torsions:
REMARK  status: ('A' for Active; 'I' for Inactive)
REMARK    1  A    between atoms: N_7  and  C_1 
REMARK    2  A    between atoms: S_2  and  C_14 
REMARK    3  A    between atoms: N_9  and  S_2 
REMARK       I    between atoms: C_11  and  N_7 
REMARK       I    between atoms: C_10  and  N_8 
REMARK    4  A    between atoms: O_27  and  C_10 
REMARK    5  A    between atoms: C_19  and  C_11 
REMARK    6  A    between atoms: C_30  and  O_27 
ROOT
ATOM      1  C   UNL d   1      42.999 -15.415  37.638  0.00  0.00     0.099 A 
ATOM      2  C   UNL d   1      43.150 -14.650  37.909  0.00  0.00     0.091 A 
ATOM      3  C   UNL d   1      44.243 -15.057  37.255  0.00  0.00     0.049 A 
ATOM      4  C   UNL d   1      43.912 -14.429  37.676  0.00  0.00     0.021 A 
ATOM      5  S   UNL d   1      43.684 -15.672  37.227  0.00  0.00    -0.068 SA
ATOM      6  N   UNL d   1      45.450 -14.300  37.066  0.00  0.00    -0.251 N 
ATOM      7  C   UNL d   1      46.213 -14.238  36.763  0.00  0.00     0.378 C 
ATOM      8  C   UNL d   1      45.015 -14.996  36.948  0.00  0.00     0.091 A 
ATOM      9  C   UNL d   1      42.635 -14.176  38.341  0.00  0.00     0.103 C 
ATOM     10  N   UNL d   1      42.114 -13.716  38.770  0.00  0.00    -0.191 NA
ATOM     11  C   UNL d   1      44.351 -13.737  37.791  0.00  0.00     0.020 A 
ATOM     12  C   UNL d   1      45.115 -13.677  37.485  0.00  0.00     0.085 A 
ATOM     13  O   UNL d   1      46.551 -14.859  36.342  0.00  0.00    -0.237 OA
ENDROOT
BRANCH   1  14
ATOM     14  N   UNL d   1      42.297 -15.843  37.753  0.00  0.00    -0.316 N 
ATOM     15  C   UNL d   1      41.830 -16.058  37.096  0.00  0.00     0.258 C 
ATOM     16  O   UNL d   1      42.072 -15.842  36.335  0.00  0.00    -0.267 OA
ATOM     17  H   UNL d   1      41.825 -16.152  38.058  0.00  0.00     0.169 HD
BRANCH  15  18
ATOM     18  C   UNL d   1      41.129 -16.486  37.211  0.00  0.00     0.056 A 
ATOM     19  C   UNL d   1      41.163 -17.306  37.279  0.00  0.00     0.005 A 
ATOM     20  C   UNL d   1      40.464 -17.743  37.395  0.00  0.00     0.013 A 
ATOM     21  C   UNL d   1      39.737 -17.343  37.442  0.00  0.00     0.104 A 
ATOM     22  C   UNL d   1      39.714 -16.515  37.372  0.00  0.00     0.013 A 
ATOM     23  C   UNL d   1      40.406 -16.086  37.258  0.00  0.00     0.005 A 
BRANCH  21  24
ATOM     24  S   UNL d   1      39.037 -17.775  37.557  0.00  0.00     0.271 S 
ATOM     25  O   UNL d   1      39.453 -18.230  38.118  0.00  0.00    -0.200 OA
ATOM     26  O   UNL d   1      38.626 -17.324  37.002  0.00  0.00    -0.200 OA
BRANCH  24  27
ATOM     27  N   UNL d   1      38.344 -18.206  37.674  0.00  0.00    -0.229 N 
ATOM     28  C   UNL d   1      37.926 -18.268  38.392  0.00  0.00     0.092 A 
ATOM     29  C   UNL d   1      37.272 -18.749  38.262  0.00  0.00     0.021 A 
ATOM     30  C   UNL d   1      37.276 -18.987  37.474  0.00  0.00     0.021 A 
ATOM     31  C   UNL d   1      37.937 -18.652  37.115  0.00  0.00     0.092 A 
ENDBRANCH  24  27
ENDBRANCH  21  24
ENDBRANCH  15  18
ENDBRANCH   1  14
BRANCH   7  32
ATOM     32  O   UNL d   1      46.646 -13.535  36.884  0.00  0.00    -0.257 OA
BRANCH  32  33
ATOM     33  C   UNL d   1      46.547 -12.910  36.370  0.00  0.00     0.128 C 
ATOM     34  C   UNL d   1      46.529 -12.144  36.663  0.00  0.00     0.029 C 
ENDBRANCH  32  33
ENDBRANCH   7  32
TORSDOF 6
ENDMDL
