MODEL 1
REMARK VINA RESULT:      -4.6      0.000      0.000
REMARK  6 active torsions:
REMARK  status: ('A' for Active; 'I' for Inactive)
REMARK    1  A    between atoms: C_2  and  S_1 
REMARK    2  A    between atoms: N_3  and  S_1 
REMARK    3  A    between atoms: C_10  and  N_3 
REMARK    4  A    between atoms: O_15  and  C_5 
REMARK    5  A    between atoms: C_13  and  C_10 
REMARK    6  A    between atoms: C_17  and  O_15 
ROOT
ATOM      1  S   UNL d   1     -41.658-122.919 -51.754  0.00  0.00     0.285 S 
ATOM      2  O   UNL d   1     -41.369-123.686 -51.623  0.00  0.00    -0.198 OA
ATOM      3  O   UNL d   1     -41.944-122.157 -51.883  0.00  0.00    -0.198 OA
ENDROOT
BRANCH   1   4
ATOM      4  C   UNL d   1     -41.532-123.010 -52.564  0.00  0.00     0.107 A 
ATOM      5  C   UNL d   1     -41.687-122.381 -53.079  0.00  0.00     0.038 A 
ATOM      6  C   UNL d   1     -41.561-122.473 -53.897  0.00  0.00     0.111 A 
ATOM      7  C   UNL d   1     -41.280-123.192 -54.193  0.00  0.00     0.081 A 
ATOM      8  C   UNL d   1     -41.127-123.817 -53.679  0.00  0.00     0.014 A 
ATOM      9 CL   UNL d   1     -41.155-123.283 -55.004  0.00  0.00    -0.080 Cl
ATOM     10  C   UNL d   1     -41.253-123.725 -52.861  0.00  0.00     0.014 A 
BRANCH   6  11
ATOM     11  O   UNL d   1     -41.714-121.847 -54.411  0.00  0.00    -0.304 OA
BRANCH  11  12
ATOM     12  C   UNL d   1     -42.447-121.793 -54.781  0.00  0.00     0.123 C 
ATOM     13  C   UNL d   1     -42.580-121.205 -55.343  0.00  0.00     0.029 C 
ENDBRANCH  11  12
ENDBRANCH   6  11
ENDBRANCH   1   4
BRANCH   1  14
ATOM     14  N   UNL d   1     -41.783-122.828 -50.943  0.00  0.00    -0.155 NA
BRANCH  14  15
ATOM     15  C   UNL d   1     -41.937-123.491 -50.473  0.00  0.00     0.131 C 
BRANCH  15  16
ATOM     16  C   UNL d   1     -42.084-123.398 -49.667  0.00  0.00     0.101 A 
ATOM     17  N   UNL d   1     -41.460-123.258 -49.147  0.00  0.00    -0.242 NA
ATOM     18  C   UNL d   1     -41.607-123.165 -48.340  0.00  0.00     0.099 A 
ATOM     19  C   UNL d   1     -42.377-123.212 -48.054  0.00  0.00     0.021 A 
ATOM     20  C   UNL d   1     -43.005-123.352 -48.573  0.00  0.00     0.003 A 
ATOM     21  C   UNL d   1     -42.858-123.445 -49.380  0.00  0.00     0.021 A 
ENDBRANCH  15  16
ENDBRANCH  14  15
ENDBRANCH   1  14
TORSDOF 6
ENDMDL
MODEL 2
REMARK VINA RESULT:      -4.1      2.039      4.981
REMARK  6 active torsions:
REMARK  status: ('A' for Active; 'I' for Inactive)
REMARK    1  A    between atoms: C_2  and  S_1 
REMARK    2  A    between atoms: N_3  and  S_1 
REMARK    3  A    between atoms: C_10  and  N_3 
REMARK    4  A    between atoms: O_15  and  C_5 
REMARK    5  A    between atoms: C_13  and  C_10 
REMARK    6  A    between atoms: C_17  and  O_15 
ROOT
ATOM      1  S   UNL d   1     -41.701-122.968 -50.811  0.00  0.00     0.285 S 
ATOM      2  O   UNL d   1     -42.177-122.295 -50.907  0.00  0.00    -0.198 OA
ATOM      3  O   UNL d   1     -41.228-123.636 -50.716  0.00  0.00    -0.198 OA
ENDROOT
BRANCH   1   4
ATOM      4  C   UNL d   1     -42.048-123.109 -50.076  0.00  0.00     0.107 A 
ATOM      5  C   UNL d   1     -41.574-123.174 -49.401  0.00  0.00     0.038 A 
ATOM      6  C   UNL d   1     -41.924-123.316 -48.659  0.00  0.00     0.111 A 
ATOM      7  C   UNL d   1     -42.746-123.392 -48.598  0.00  0.00     0.081 A 
ATOM      8  C   UNL d   1     -43.215-123.327 -49.270  0.00  0.00     0.014 A 
ATOM      9 CL   UNL d   1     -43.093-123.533 -47.862  0.00  0.00    -0.080 Cl
ATOM     10  C   UNL d   1     -42.865-123.185 -50.013  0.00  0.00     0.014 A 
BRANCH   6  11
ATOM     11  O   UNL d   1     -41.453-123.381 -47.985  0.00  0.00    -0.304 OA
BRANCH  11  12
ATOM     12  C   UNL d   1     -41.335-122.724 -47.504  0.00  0.00     0.123 C 
ATOM     13  C   UNL d   1     -41.122-122.828 -46.714  0.00  0.00     0.029 C 
ENDBRANCH  11  12
ENDBRANCH   6  11
ENDBRANCH   1   4
BRANCH   1  14
ATOM     14  N   UNL d   1     -41.354-122.827 -51.546  0.00  0.00    -0.155 NA
BRANCH  14  15
ATOM     15  C   UNL d   1     -41.430-123.386 -52.151  0.00  0.00     0.131 C 
BRANCH  15  16
ATOM     16  C   UNL d   1     -41.353-123.152 -52.938  0.00  0.00     0.101 A 
ATOM     17  N   UNL d   1     -41.200-122.363 -53.122  0.00  0.00    -0.242 NA
ATOM     18  C   UNL d   1     -41.123-122.129 -53.909  0.00  0.00     0.099 A 
ATOM     19  C   UNL d   1     -41.199-122.684 -54.513  0.00  0.00     0.021 A 
ATOM     20  C   UNL d   1     -41.352-123.476 -54.332  0.00  0.00     0.003 A 
ATOM     21  C   UNL d   1     -41.429-123.710 -53.545  0.00  0.00     0.021 A 
ENDBRANCH  15  16
ENDBRANCH  14  15
ENDBRANCH   1  14
TORSDOF 6
ENDMDL
MODEL 3
REMARK VINA RESULT:      -4.1      1.932      4.765
REMARK  6 active torsions:
REMARK  status: ('A' for Active; 'I' for Inactive)
REMARK    1  A    between atoms: C_2  and  S_1 
REMARK    2  A    between atoms: N_3  and  S_1 
REMARK    3  A    between atoms: C_10  and  N_3 
REMARK    4  A    between atoms: O_15  and  C_5 
REMARK    5  A    between atoms: C_13  and  C_10 
REMARK    6  A    between atoms: C_17  and  O_15 
ROOT
ATOM      1  S   UNL d   1     -41.931-122.271 -51.736  0.00  0.00     0.285 S 
ATOM      2  O   UNL d   1     -41.385-122.859 -51.948  0.00  0.00    -0.198 OA
ATOM      3  O   UNL d   1     -42.472-121.687 -51.526  0.00  0.00    -0.198 OA
ENDROOT
BRANCH   1   4
ATOM      4  C   UNL d   1     -41.815-122.451 -50.939  0.00  0.00     0.107 A 
ATOM      5  C   UNL d   1     -42.279-123.031 -50.576  0.00  0.00     0.038 A 
ATOM      6  C   UNL d   1     -42.163-123.213 -49.771  0.00  0.00     0.111 A 
ATOM      7  C   UNL d   1     -41.584-122.812 -49.337  0.00  0.00     0.081 A 
ATOM      8  C   UNL d   1     -41.124-122.235 -49.700  0.00  0.00     0.014 A 
ATOM      9 CL   UNL d   1     -41.469-122.992 -48.540  0.00  0.00    -0.080 Cl
ATOM     10  C   UNL d   1     -41.240-122.053 -50.505  0.00  0.00     0.014 A 
BRANCH   6  11
ATOM     11  O   UNL d   1     -42.624-123.791 -49.407  0.00  0.00    -0.304 OA
BRANCH  11  12
ATOM     12  C   UNL d   1     -43.444-123.768 -49.483  0.00  0.00     0.123 C 
ATOM     13  C   UNL d   1     -43.918-123.814 -48.811  0.00  0.00     0.029 C 
ENDBRANCH  11  12
ENDBRANCH   6  11
ENDBRANCH   1   4
BRANCH   1  14
ATOM     14  N   UNL d   1     -42.046-122.091 -52.533  0.00  0.00    -0.155 NA
BRANCH  14  15
ATOM     15  C   UNL d   1     -41.546-122.418 -53.105  0.00  0.00     0.131 C 
BRANCH  15  16
ATOM     16  C   UNL d   1     -41.672-122.251 -53.904  0.00  0.00     0.101 A 
ATOM     17  N   UNL d   1     -42.260-121.719 -54.127  0.00  0.00    -0.242 NA
ATOM     18  C   UNL d   1     -42.385-121.553 -54.925  0.00  0.00     0.099 A 
ATOM     19  C   UNL d   1     -41.922-121.918 -55.500  0.00  0.00     0.021 A 
ATOM     20  C   UNL d   1     -41.331-122.452 -55.278  0.00  0.00     0.003 A 
ATOM     21  C   UNL d   1     -41.206-122.619 -54.480  0.00  0.00     0.021 A 
ENDBRANCH  15  16
ENDBRANCH  14  15
ENDBRANCH   1  14
TORSDOF 6
ENDMDL
MODEL 4
REMARK VINA RESULT:      -2.4      2.267      4.990
REMARK  6 active torsions:
REMARK  status: ('A' for Active; 'I' for Inactive)
REMARK    1  A    between atoms: C_2  and  S_1 
REMARK    2  A    between atoms: N_3  and  S_1 
REMARK    3  A    between atoms: C_10  and  N_3 
REMARK    4  A    between atoms: O_15  and  C_5 
REMARK    5  A    between atoms: C_13  and  C_10 
REMARK    6  A    between atoms: C_17  and  O_15 
ROOT
ATOM      1  S   UNL d   1     -42.326-122.661 -50.368  0.00  0.00     0.285 S 
ATOM      2  O   UNL d   1     -42.320-123.447 -50.637  0.00  0.00    -0.198 OA
ATOM      3  O   UNL d   1     -42.331-121.882 -50.101  0.00  0.00    -0.198 OA
ENDROOT
BRANCH   1   4
ATOM      4  C   UNL d   1     -42.638-122.911 -49.646  0.00  0.00     0.107 A 
ATOM      5  C   UNL d   1     -42.188-122.841 -48.955  0.00  0.00     0.038 A 
ATOM      6  C   UNL d   1     -42.504-123.092 -48.226  0.00  0.00     0.111 A 
ATOM      7  C   UNL d   1     -43.266-123.412 -48.195  0.00  0.00     0.081 A 
ATOM      8  C   UNL d   1     -43.712-123.481 -48.883  0.00  0.00     0.014 A 
ATOM      9 CL   UNL d   1     -43.579-123.662 -47.473  0.00  0.00    -0.080 Cl
ATOM     10  C   UNL d   1     -43.396-123.229 -49.612  0.00  0.00     0.014 A 
BRANCH   6  11
ATOM     11  O   UNL d   1     -42.058-123.023 -47.537  0.00  0.00    -0.304 OA
BRANCH  11  12
ATOM     12  C   UNL d   1     -41.344-122.613 -47.551  0.00  0.00     0.123 C 
ATOM     13  C   UNL d   1     -41.123-122.155 -46.903  0.00  0.00     0.029 C 
ENDBRANCH  11  12
ENDBRANCH   6  11
ENDBRANCH   1   4
BRANCH   1  14
ATOM     14  N   UNL d   1     -42.013-122.412 -51.089  0.00  0.00    -0.155 NA
BRANCH  14  15
ATOM     15  C   UNL d   1     -41.395-122.835 -51.439  0.00  0.00     0.131 C 
BRANCH  15  16
ATOM     16  C   UNL d   1     -41.304-122.829 -52.259  0.00  0.00     0.101 A 
ATOM     17  N   UNL d   1     -41.298-123.537 -52.680  0.00  0.00    -0.242 NA
ATOM     18  C   UNL d   1     -41.207-123.530 -53.500  0.00  0.00     0.099 A 
ATOM     19  C   UNL d   1     -41.123-122.815 -53.899  0.00  0.00     0.021 A 
ATOM     20  C   UNL d   1     -41.129-122.102 -53.479  0.00  0.00     0.003 A 
ATOM     21  C   UNL d   1     -41.220-122.109 -52.659  0.00  0.00     0.021 A 
ENDBRANCH  15  16
ENDBRANCH  14  15
ENDBRANCH   1  14
TORSDOF 6
ENDMDL
