MODEL 1
REMARK VINA RESULT:      12.3      0.000      0.000
REMARK  5 active torsions:
REMARK  status: ('A' for Active; 'I' for Inactive)
REMARK       I    between atoms: N_2  and  C_1 
REMARK    1  A    between atoms: C_4  and  C_1 
REMARK    2  A    between atoms: C_3  and  N_2 
REMARK    3  A    between atoms: N_5  and  C_3 
REMARK    4  A    between atoms: C_7  and  N_5 
REMARK    5  A    between atoms: O_14  and  C_11 
ROOT
ATOM      1  C   UNL d   1      45.491 -15.381  44.487  0.00  0.00     0.283 C 
ATOM      2  N   UNL d   1      46.072 -15.964  44.483  0.00  0.00    -0.179 NA
ATOM      3  O   UNL d   1      44.699 -15.598  44.400  0.00  0.00    -0.265 OA
ENDROOT
BRANCH   2   4
ATOM      4  C   UNL d   1      45.877 -16.755  44.395  0.00  0.00     0.224 C 
ATOM      5  S   UNL d   1      45.379 -17.121  44.954  0.00  0.00    -0.037 SA
BRANCH   4   6
ATOM      6  N   UNL d   1      46.164 -17.201  43.762  0.00  0.00    -0.215 NA
BRANCH   6   7
ATOM      7  C   UNL d   1      46.323 -18.005  43.849  0.00  0.00     0.112 A 
ATOM      8  C   UNL d   1      46.475 -18.476  43.177  0.00  0.00     0.156 A 
ATOM      9  N   UNL d   1      46.634 -19.279  43.264  0.00  0.00    -0.231 NA
ATOM     10 CL   UNL d   1      46.466 -18.130  42.421  0.00  0.00    -0.060 Cl
ATOM     11  C   UNL d   1      46.643 -19.617  44.015  0.00  0.00     0.100 A 
ATOM     12  C   UNL d   1      46.492 -19.151  44.680  0.00  0.00     0.022 A 
ATOM     13  C   UNL d   1      46.331 -18.343  44.600  0.00  0.00     0.023 A 
ENDBRANCH   6   7
ENDBRANCH   4   6
ENDBRANCH   2   4
BRANCH   1  14
ATOM     14  C   UNL d   1      45.694 -14.588  44.576  0.00  0.00     0.080 A 
ATOM     15  C   UNL d   1      45.152 -14.001  44.377  0.00  0.00     0.099 A 
ATOM     16  C   UNL d   1      45.355 -13.207  44.467  0.00  0.00     0.024 A 
ATOM     17  C   UNL d   1      46.106 -13.004  44.757  0.00  0.00     0.002 A 
ATOM     18  C   UNL d   1      46.646 -13.600  44.955  0.00  0.00     0.000 A 
ATOM     19  C   UNL d   1      46.442 -14.394  44.865  0.00  0.00     0.007 A 
BRANCH  15  20
ATOM     20  O   UNL d   1      44.409 -14.206  44.090  0.00  0.00    -0.328 OA
ATOM     21  C   UNL d   1      43.884 -13.619  43.848  0.00  0.00     0.181 C 
ENDBRANCH  15  20
ENDBRANCH   1  14
TORSDOF 5
ENDMDL
MODEL 2
REMARK VINA RESULT:      13.9      1.736      4.666
REMARK  5 active torsions:
REMARK  status: ('A' for Active; 'I' for Inactive)
REMARK       I    between atoms: N_2  and  C_1 
REMARK    1  A    between atoms: C_4  and  C_1 
REMARK    2  A    between atoms: C_3  and  N_2 
REMARK    3  A    between atoms: N_5  and  C_3 
REMARK    4  A    between atoms: C_7  and  N_5 
REMARK    5  A    between atoms: O_14  and  C_11 
ROOT
ATOM      1  C   UNL d   1      46.302 -17.798  43.846  0.00  0.00     0.283 C 
ATOM      2  N   UNL d   1      45.990 -17.317  44.437  0.00  0.00    -0.179 NA
ATOM      3  O   UNL d   1      46.500 -17.467  43.116  0.00  0.00    -0.265 OA
ENDROOT
BRANCH   2   4
ATOM      4  C   UNL d   1      45.873 -16.516  44.312  0.00  0.00     0.224 C 
ATOM      5  S   UNL d   1      46.219 -16.149  43.648  0.00  0.00    -0.037 SA
BRANCH   4   6
ATOM      6  N   UNL d   1      45.418 -16.061  44.829  0.00  0.00    -0.215 NA
BRANCH   6   7
ATOM      7  C   UNL d   1      45.509 -15.243  44.865  0.00  0.00     0.112 A 
ATOM      8  C   UNL d   1      44.839 -14.749  44.919  0.00  0.00     0.156 A 
ATOM      9  N   UNL d   1      44.931 -13.932  44.955  0.00  0.00    -0.231 NA
ATOM     10 CL   UNL d   1      44.080 -15.087  44.936  0.00  0.00    -0.060 Cl
ATOM     11  C   UNL d   1      45.685 -13.602  44.938  0.00  0.00     0.100 A 
ATOM     12  C   UNL d   1      46.349 -14.090  44.884  0.00  0.00     0.022 A 
ATOM     13  C   UNL d   1      46.264 -14.913  44.848  0.00  0.00     0.023 A 
ENDBRANCH   6   7
ENDBRANCH   4   6
ENDBRANCH   2   4
BRANCH   1  14
ATOM     14  C   UNL d   1      46.417 -18.603  43.980  0.00  0.00     0.080 A 
ATOM     15  C   UNL d   1      46.467 -19.122  43.341  0.00  0.00     0.099 A 
ATOM     16  C   UNL d   1      46.582 -19.926  43.474  0.00  0.00     0.024 A 
ATOM     17  C   UNL d   1      46.647 -20.211  44.251  0.00  0.00     0.002 A 
ATOM     18  C   UNL d   1      46.596 -19.684  44.888  0.00  0.00     0.000 A 
ATOM     19  C   UNL d   1      46.481 -18.879  44.755  0.00  0.00     0.007 A 
BRANCH  15  20
ATOM     20  O   UNL d   1      46.402 -18.836  42.573  0.00  0.00    -0.328 OA
ATOM     21  C   UNL d   1      46.351 -19.361  41.940  0.00  0.00     0.181 C 
ENDBRANCH  15  20
ENDBRANCH   1  14
TORSDOF 5
ENDMDL
