MODEL 1
REMARK VINA RESULT:      -4.7      0.000      0.000
REMARK  5 active torsions:
REMARK  status: ('A' for Active; 'I' for Inactive)
REMARK    1  A    between atoms: C_12  and  N_1 
REMARK    2  A    between atoms: C_6  and  C_5 
REMARK    3  A    between atoms: C_7  and  C_6 
REMARK       I    between atoms: N_9  and  C_7 
REMARK    4  A    between atoms: C_13  and  N_9 
REMARK    5  A    between atoms: C_16  and  C_12 
ROOT
ATOM      1  N   UNL d   1      59.525  -0.057  29.481  0.00  0.00    -0.235 N 
ATOM      2  C   UNL d   1      59.848   0.343  30.128  0.00  0.00     0.298 A 
ATOM      3  C   UNL d   1      58.712   0.017  29.504  0.00  0.00     0.274 A 
ATOM      4  S   UNL d   1      59.220   0.670  30.556  0.00  0.00    -0.022 SA
ATOM      5  C   UNL d   1      58.520   0.469  30.171  0.00  0.00     0.095 A 
ATOM      6  O   UNL d   1      60.648   0.411  30.322  0.00  0.00    -0.259 OA
ATOM      7  O   UNL d   1      58.181  -0.296  28.966  0.00  0.00    -0.266 OA
ENDROOT
BRANCH   5   8
ATOM      8  C   UNL d   1      57.756   0.682  30.410  0.00  0.00     0.074 C 
BRANCH   8   9
ATOM      9  C   UNL d   1      57.472   0.438  31.146  0.00  0.00     0.280 C 
ATOM     10  N   UNL d   1      56.724   0.098  31.208  0.00  0.00    -0.208 NA
ATOM     11  O   UNL d   1      57.941   0.534  31.823  0.00  0.00    -0.265 OA
BRANCH  10  12
ATOM     12  C   UNL d   1      56.443  -0.145  31.943  0.00  0.00     0.085 A 
ATOM     13  C   UNL d   1      56.098   0.400  32.455  0.00  0.00     0.019 A 
ATOM     14  C   UNL d   1      55.817   0.154  33.193  0.00  0.00     0.002 A 
ATOM     15  C   UNL d   1      55.881  -0.638  33.416  0.00  0.00     0.000 A 
ATOM     16  C   UNL d   1      56.228  -1.185  32.898  0.00  0.00     0.002 A 
ATOM     17  C   UNL d   1      56.506  -0.933  32.167  0.00  0.00     0.019 A 
ENDBRANCH  10  12
ENDBRANCH   8   9
ENDBRANCH   5   8
BRANCH   1  18
ATOM     18  C   UNL d   1      59.955  -0.463  28.910  0.00  0.00     0.086 C 
BRANCH  18  19
ATOM     19  C   UNL d   1      60.266  -1.208  29.066  0.00  0.00     0.019 C 
ATOM     20  C   UNL d   1      60.650  -1.629  28.475  0.00  0.00     0.002 C 
ENDBRANCH  18  19
ENDBRANCH   1  18
TORSDOF 5
ENDMDL
MODEL 2
REMARK VINA RESULT:      -3.3      1.250      4.419
REMARK  5 active torsions:
REMARK  status: ('A' for Active; 'I' for Inactive)
REMARK    1  A    between atoms: C_12  and  N_1 
REMARK    2  A    between atoms: C_6  and  C_5 
REMARK    3  A    between atoms: C_7  and  C_6 
REMARK       I    between atoms: N_9  and  C_7 
REMARK    4  A    between atoms: C_13  and  N_9 
REMARK    5  A    between atoms: C_16  and  C_12 
ROOT
ATOM      1  N   UNL d   1      56.706   0.290  32.881  0.00  0.00    -0.235 N 
ATOM      2  C   UNL d   1      57.481   0.545  33.013  0.00  0.00     0.298 A 
ATOM      3  C   UNL d   1      56.570   0.267  32.076  0.00  0.00     0.274 A 
ATOM      4  S   UNL d   1      57.827   0.681  32.274  0.00  0.00    -0.022 SA
ATOM      5  C   UNL d   1      57.265   0.509  31.696  0.00  0.00     0.095 A 
ATOM      6  O   UNL d   1      57.852   0.649  33.743  0.00  0.00    -0.259 OA
ATOM      7  O   UNL d   1      55.874   0.045  31.707  0.00  0.00    -0.266 OA
ENDROOT
BRANCH   5   8
ATOM      8  C   UNL d   1      57.377   0.569  30.878  0.00  0.00     0.074 C 
BRANCH   8   9
ATOM      9  C   UNL d   1      58.025   0.200  30.523  0.00  0.00     0.280 C 
ATOM     10  N   UNL d   1      57.918  -0.267  29.852  0.00  0.00    -0.208 NA
ATOM     11  O   UNL d   1      58.783   0.299  30.842  0.00  0.00    -0.265 OA
BRANCH  10  12
ATOM     12  C   UNL d   1      58.564  -0.634  29.500  0.00  0.00     0.085 A 
ATOM     13  C   UNL d   1      58.665  -1.448  29.565  0.00  0.00     0.019 A 
ATOM     14  C   UNL d   1      59.316  -1.815  29.211  0.00  0.00     0.002 A 
ATOM     15  C   UNL d   1      59.865  -1.365  28.791  0.00  0.00     0.000 A 
ATOM     16  C   UNL d   1      59.763  -0.545  28.726  0.00  0.00     0.002 A 
ATOM     17  C   UNL d   1      59.113  -0.187  29.081  0.00  0.00     0.019 A 
ENDBRANCH  10  12
ENDBRANCH   8   9
ENDBRANCH   5   8
BRANCH   1  18
ATOM     18  C   UNL d   1      56.164   0.093  33.466  0.00  0.00     0.086 C 
BRANCH  18  19
ATOM     19  C   UNL d   1      55.782   0.677  33.902  0.00  0.00     0.019 C 
ATOM     20  C   UNL d   1      55.156   0.481  34.396  0.00  0.00     0.002 C 
ENDBRANCH  18  19
ENDBRANCH   1  18
TORSDOF 5
ENDMDL
MODEL 3
REMARK VINA RESULT:      -3.1      1.648      4.794
REMARK  5 active torsions:
REMARK  status: ('A' for Active; 'I' for Inactive)
REMARK    1  A    between atoms: C_12  and  N_1 
REMARK    2  A    between atoms: C_6  and  C_5 
REMARK    3  A    between atoms: C_7  and  C_6 
REMARK       I    between atoms: N_9  and  C_7 
REMARK    4  A    between atoms: C_13  and  N_9 
REMARK    5  A    between atoms: C_16  and  C_12 
ROOT
ATOM      1  N   UNL d   1      56.173  -0.182  33.446  0.00  0.00    -0.235 N 
ATOM      2  C   UNL d   1      55.921  -0.598  32.778  0.00  0.00     0.298 A 
ATOM      3  C   UNL d   1      56.868   0.207  33.267  0.00  0.00     0.274 A 
ATOM      4  S   UNL d   1      56.472  -0.461  32.177  0.00  0.00    -0.022 SA
ATOM      5  C   UNL d   1      57.057   0.035  32.479  0.00  0.00     0.095 A 
ATOM      6  O   UNL d   1      55.244  -1.067  32.710  0.00  0.00    -0.259 OA
ATOM      7  O   UNL d   1      57.302   0.682  33.772  0.00  0.00    -0.266 OA
ENDROOT
BRANCH   5   8
ATOM      8  C   UNL d   1      57.718   0.315  32.065  0.00  0.00     0.074 C 
BRANCH   8   9
ATOM      9  C   UNL d   1      57.773   0.197  31.250  0.00  0.00     0.280 C 
ATOM     10  N   UNL d   1      58.508   0.063  30.900  0.00  0.00    -0.208 NA
ATOM     11  O   UNL d   1      57.088   0.212  30.782  0.00  0.00    -0.265 OA
BRANCH  10  12
ATOM     12  C   UNL d   1      58.560  -0.054  30.088  0.00  0.00     0.085 A 
ATOM     13  C   UNL d   1      58.617  -0.816  29.782  0.00  0.00     0.019 A 
ATOM     14  C   UNL d   1      58.670  -0.933  28.965  0.00  0.00     0.002 A 
ATOM     15  C   UNL d   1      58.665  -0.284  28.455  0.00  0.00     0.000 A 
ATOM     16  C   UNL d   1      58.608   0.484  28.765  0.00  0.00     0.002 A 
ATOM     17  C   UNL d   1      58.556   0.591  29.578  0.00  0.00     0.019 A 
ENDBRANCH  10  12
ENDBRANCH   8   9
ENDBRANCH   5   8
BRANCH   1  18
ATOM     18  C   UNL d   1      55.785  -0.165  34.170  0.00  0.00     0.086 C 
BRANCH  18  19
ATOM     19  C   UNL d   1      55.487   0.539  34.473  0.00  0.00     0.019 C 
ATOM     20  C   UNL d   1      55.083   0.544  35.188  0.00  0.00     0.002 C 
ENDBRANCH  18  19
ENDBRANCH   1  18
TORSDOF 5
ENDMDL
MODEL 4
REMARK VINA RESULT:      -2.2      0.947      1.412
REMARK  5 active torsions:
REMARK  status: ('A' for Active; 'I' for Inactive)
REMARK    1  A    between atoms: C_12  and  N_1 
REMARK    2  A    between atoms: C_6  and  C_5 
REMARK    3  A    between atoms: C_7  and  C_6 
REMARK       I    between atoms: N_9  and  C_7 
REMARK    4  A    between atoms: C_13  and  N_9 
REMARK    5  A    between atoms: C_16  and  C_12 
ROOT
ATOM      1  N   UNL d   1      59.436   0.252  30.254  0.00  0.00    -0.235 N 
ATOM      2  C   UNL d   1      58.719   0.218  29.845  0.00  0.00     0.298 A 
ATOM      3  C   UNL d   1      59.285   0.427  31.037  0.00  0.00     0.274 A 
ATOM      4  S   UNL d   1      58.116   0.375  30.389  0.00  0.00    -0.022 SA
ATOM      5  C   UNL d   1      58.465   0.504  31.124  0.00  0.00     0.095 A 
ATOM      6  O   UNL d   1      58.612   0.057  29.043  0.00  0.00    -0.259 OA
ATOM      7  O   UNL d   1      59.841   0.512  31.632  0.00  0.00    -0.266 OA
ENDROOT
BRANCH   5   8
ATOM      8  C   UNL d   1      58.065   0.681  31.827  0.00  0.00     0.074 C 
BRANCH   8   9
ATOM      9  C   UNL d   1      57.385   0.259  32.031  0.00  0.00     0.280 C 
ATOM     10  N   UNL d   1      57.064   0.333  32.786  0.00  0.00    -0.208 NA
ATOM     11  O   UNL d   1      57.025  -0.239  31.474  0.00  0.00    -0.265 OA
BRANCH  10  12
ATOM     12  C   UNL d   1      56.386  -0.089  32.987  0.00  0.00     0.085 A 
ATOM     13  C   UNL d   1      55.690   0.310  33.174  0.00  0.00     0.019 A 
ATOM     14  C   UNL d   1      55.010  -0.115  33.375  0.00  0.00     0.002 A 
ATOM     15  C   UNL d   1      55.028  -0.940  33.389  0.00  0.00     0.000 A 
ATOM     16  C   UNL d   1      55.730  -1.340  33.200  0.00  0.00     0.002 A 
ATOM     17  C   UNL d   1      56.401  -0.911  33.001  0.00  0.00     0.019 A 
ENDBRANCH  10  12
ENDBRANCH   8   9
ENDBRANCH   5   8
BRANCH   1  18
ATOM     18  C   UNL d   1      60.179   0.129  29.923  0.00  0.00     0.086 C 
BRANCH  18  19
ATOM     19  C   UNL d   1      60.257  -0.132  29.147  0.00  0.00     0.019 C 
ATOM     20  C   UNL d   1      61.002  -0.267  28.830  0.00  0.00     0.002 C 
ENDBRANCH  18  19
ENDBRANCH   1  18
TORSDOF 5
ENDMDL
