MODEL 1
REMARK VINA RESULT:      78.2      0.000      0.000
REMARK  5 active torsions:
REMARK  status: ('A' for Active; 'I' for Inactive)
REMARK    1  A    between atoms: C_12  and  N_3 
REMARK    2  A    between atoms: C_11  and  C_5 
REMARK       I    between atoms: N_16  and  C_11 
REMARK    3  A    between atoms: C_15  and  C_12 
REMARK    4  A    between atoms: C_26  and  N_16 
REMARK    5  A    between atoms: C_27  and  C_26 
ROOT
ATOM      1  C   UNL d   1      44.455 -15.734  37.193  0.00  0.00     0.155 A 
ATOM      2  C   UNL d   1      44.132 -16.341  37.667  0.00  0.00     0.091 A 
ATOM      3  N   UNL d   1      45.268 -15.624  37.174  0.00  0.00    -0.272 N 
ATOM      4  N   UNL d   1      43.955 -15.255  36.752  0.00  0.00    -0.210 NA
ATOM      5  C   UNL d   1      45.449 -16.712  38.090  0.00  0.00     0.094 A 
ATOM      6  C   UNL d   1      45.769 -16.110  37.620  0.00  0.00     0.175 A 
ATOM      7  C   UNL d   1      43.315 -16.456  37.690  0.00  0.00     0.269 A 
ATOM      8  N   UNL d   1      42.822 -15.966  37.241  0.00  0.00    -0.258 N 
ATOM      9  C   UNL d   1      43.145 -15.365  36.773  0.00  0.00     0.152 A 
ATOM     10  C   UNL d   1      44.629 -16.826  38.112  0.00  0.00     0.016 A 
ATOM     11  N   UNL d   1      46.585 -15.995  37.597  0.00  0.00    -0.128 N 
ATOM     12  C   UNL d   1      42.002 -16.087  37.269  0.00  0.00     0.084 A 
ATOM     13  O   UNL d   1      42.988 -17.055  38.157  0.00  0.00    -0.266 OA
ATOM     14  C   UNL d   1      42.641 -14.885  36.331  0.00  0.00     0.038 A 
ATOM     15  C   UNL d   1      41.512 -15.597  36.820  0.00  0.00     0.019 A 
ATOM     16  C   UNL d   1      41.832 -14.996  36.351  0.00  0.00     0.005 A 
ENDROOT
BRANCH   5  17
ATOM     17  C   UNL d   1      45.946 -17.196  38.535  0.00  0.00     0.282 C 
ATOM     18  N   UNL d   1      45.743 -17.392  39.310  0.00  0.00    -0.206 NA
ATOM     19  O   UNL d   1      46.646 -17.486  38.205  0.00  0.00    -0.265 OA
BRANCH  18  20
ATOM     20  C   UNL d   1      46.241 -17.881  39.762  0.00  0.00     0.102 C 
BRANCH  20  21
ATOM     21  C   UNL d   1      46.050 -18.058  40.545  0.00  0.00     0.019 A 
ATOM     22  C   UNL d   1      45.283 -17.926  40.824  0.00  0.00     0.002 A 
ATOM     23  C   UNL d   1      45.092 -18.102  41.607  0.00  0.00     0.000 A 
ATOM     24  C   UNL d   1      45.669 -18.412  42.114  0.00  0.00     0.000 A 
ATOM     25  C   UNL d   1      46.435 -18.543  41.832  0.00  0.00     0.000 A 
ATOM     26  C   UNL d   1      45.478 -18.589  42.897  0.00  0.00     0.000 C 
ATOM     27  C   UNL d   1      46.626 -18.366  41.049  0.00  0.00     0.002 A 
ENDBRANCH  20  21
ENDBRANCH  18  20
ENDBRANCH   5  17
BRANCH   3  28
ATOM     28  C   UNL d   1      45.588 -15.023  36.705  0.00  0.00     0.107 C 
BRANCH  28  29
ATOM     29  C   UNL d   1      45.767 -14.290  37.038  0.00  0.00     0.118 A 
ATOM     30  O   UNL d   1      45.572 -13.719  37.591  0.00  0.00    -0.304 OA
ATOM     31  C   UNL d   1      46.110 -13.100  37.533  0.00  0.00     0.123 A 
ATOM     32  C   UNL d   1      46.647 -13.287  36.935  0.00  0.00     0.029 A 
ATOM     33  C   UNL d   1      46.437 -14.023  36.627  0.00  0.00     0.028 A 
ENDBRANCH  28  29
ENDBRANCH   3  28
TORSDOF 5
ENDMDL
MODEL 2
REMARK VINA RESULT:      78.8      1.004      2.905
REMARK  5 active torsions:
REMARK  status: ('A' for Active; 'I' for Inactive)
REMARK    1  A    between atoms: C_12  and  N_3 
REMARK    2  A    between atoms: C_11  and  C_5 
REMARK       I    between atoms: N_16  and  C_11 
REMARK    3  A    between atoms: C_15  and  C_12 
REMARK    4  A    between atoms: C_26  and  N_16 
REMARK    5  A    between atoms: C_27  and  C_26 
ROOT
ATOM      1  C   UNL d   1      44.906 -15.569  37.098  0.00  0.00     0.155 A 
ATOM      2  C   UNL d   1      45.489 -15.687  37.684  0.00  0.00     0.091 A 
ATOM      3  N   UNL d   1      44.334 -16.145  36.975  0.00  0.00    -0.272 N 
ATOM      4  N   UNL d   1      44.912 -14.880  36.653  0.00  0.00    -0.210 NA
ATOM      5  C   UNL d   1      44.909 -16.956  38.007  0.00  0.00     0.094 A 
ATOM      6  C   UNL d   1      44.331 -16.839  37.426  0.00  0.00     0.175 A 
ATOM      7  C   UNL d   1      46.066 -15.112  37.814  0.00  0.00     0.269 A 
ATOM      8  N   UNL d   1      46.062 -14.420  37.357  0.00  0.00    -0.258 N 
ATOM      9  C   UNL d   1      45.483 -14.308  36.778  0.00  0.00     0.152 A 
ATOM     10  C   UNL d   1      45.488 -16.378  38.135  0.00  0.00     0.016 A 
ATOM     11  N   UNL d   1      43.754 -17.414  37.297  0.00  0.00    -0.128 N 
ATOM     12  C   UNL d   1      46.645 -13.847  37.492  0.00  0.00     0.084 A 
ATOM     13  O   UNL d   1      46.647 -15.222  38.392  0.00  0.00    -0.266 OA
ATOM     14  C   UNL d   1      45.491 -13.614  36.332  0.00  0.00     0.038 A 
ATOM     15  C   UNL d   1      46.639 -13.159  37.037  0.00  0.00     0.019 A 
ATOM     16  C   UNL d   1      46.061 -13.042  36.456  0.00  0.00     0.005 A 
ENDROOT
BRANCH   5  17
ATOM     17  C   UNL d   1      44.908 -17.647  38.457  0.00  0.00     0.282 C 
ATOM     18  N   UNL d   1      45.024 -17.606  39.273  0.00  0.00    -0.206 NA
ATOM     19  O   UNL d   1      44.790 -18.379  38.092  0.00  0.00    -0.265 OA
BRANCH  18  20
ATOM     20  C   UNL d   1      45.023 -18.300  39.731  0.00  0.00     0.102 C 
BRANCH  20  21
ATOM     21  C   UNL d   1      45.429 -18.324  40.449  0.00  0.00     0.019 A 
ATOM     22  C   UNL d   1      46.081 -18.824  40.540  0.00  0.00     0.002 A 
ATOM     23  C   UNL d   1      46.486 -18.848  41.257  0.00  0.00     0.000 A 
ATOM     24  C   UNL d   1      46.241 -18.371  41.888  0.00  0.00     0.000 A 
ATOM     25  C   UNL d   1      45.589 -17.871  41.794  0.00  0.00     0.000 A 
ATOM     26  C   UNL d   1      46.647 -18.394  42.606  0.00  0.00     0.000 C 
ATOM     27  C   UNL d   1      45.183 -17.848  41.076  0.00  0.00     0.002 A 
ENDBRANCH  20  21
ENDBRANCH  18  20
ENDBRANCH   5  17
BRANCH   3  28
ATOM     28  C   UNL d   1      43.757 -16.028  36.394  0.00  0.00     0.107 C 
BRANCH  28  29
ATOM     29  C   UNL d   1      42.995 -15.796  36.609  0.00  0.00     0.118 A 
ATOM     30  O   UNL d   1      42.523 -15.236  36.975  0.00  0.00    -0.304 OA
ATOM     31  C   UNL d   1      41.739 -15.479  36.929  0.00  0.00     0.123 A 
ATOM     32  C   UNL d   1      41.722 -16.200  36.528  0.00  0.00     0.029 A 
ATOM     33  C   UNL d   1      42.497 -16.399  36.330  0.00  0.00     0.028 A 
ENDBRANCH  28  29
ENDBRANCH   3  28
TORSDOF 5
ENDMDL
MODEL 3
REMARK VINA RESULT:      80.0      2.427      6.300
REMARK  5 active torsions:
REMARK  status: ('A' for Active; 'I' for Inactive)
REMARK    1  A    between atoms: C_12  and  N_3 
REMARK    2  A    between atoms: C_11  and  C_5 
REMARK       I    between atoms: N_16  and  C_11 
REMARK    3  A    between atoms: C_15  and  C_12 
REMARK    4  A    between atoms: C_26  and  N_16 
REMARK    5  A    between atoms: C_27  and  C_26 
ROOT
ATOM      1  C   UNL d   1      46.075 -17.584  42.769  0.00  0.00     0.155 A 
ATOM      2  C   UNL d   1      45.729 -17.020  42.259  0.00  0.00     0.091 A 
ATOM      3  N   UNL d   1      46.305 -18.313  42.470  0.00  0.00    -0.272 N 
ATOM      4  N   UNL d   1      46.180 -17.402  43.562  0.00  0.00    -0.210 NA
ATOM      5  C   UNL d   1      45.854 -17.934  41.164  0.00  0.00     0.094 A 
ATOM      6  C   UNL d   1      46.196 -18.492  41.669  0.00  0.00     0.175 A 
ATOM      7  C   UNL d   1      45.497 -16.285  42.553  0.00  0.00     0.269 A 
ATOM      8  N   UNL d   1      45.608 -16.114  43.356  0.00  0.00    -0.258 N 
ATOM      9  C   UNL d   1      45.951 -16.675  43.858  0.00  0.00     0.152 A 
ATOM     10  C   UNL d   1      45.621 -17.196  41.461  0.00  0.00     0.016 A 
ATOM     11  N   UNL d   1      46.429 -19.227  41.375  0.00  0.00    -0.128 N 
ATOM     12  C   UNL d   1      45.372 -15.374  43.645  0.00  0.00     0.084 A 
ATOM     13  O   UNL d   1      45.154 -15.721  42.054  0.00  0.00    -0.266 OA
ATOM     14  C   UNL d   1      46.056 -16.490  44.655  0.00  0.00     0.038 A 
ATOM     15  C   UNL d   1      45.484 -15.205  44.446  0.00  0.00     0.019 A 
ATOM     16  C   UNL d   1      45.826 -15.764  44.951  0.00  0.00     0.005 A 
ENDROOT
BRANCH   5  17
ATOM     17  C   UNL d   1      45.746 -18.110  40.365  0.00  0.00     0.282 C 
ATOM     18  N   UNL d   1      45.136 -17.749  39.943  0.00  0.00    -0.206 NA
ATOM     19  O   UNL d   1      46.247 -18.649  39.989  0.00  0.00    -0.265 OA
BRANCH  18  20
ATOM     20  C   UNL d   1      45.024 -17.924  39.138  0.00  0.00     0.102 C 
BRANCH  20  21
ATOM     21  C   UNL d   1      44.813 -17.328  38.609  0.00  0.00     0.019 A 
ATOM     22  C   UNL d   1      44.086 -16.941  38.688  0.00  0.00     0.002 A 
ATOM     23  C   UNL d   1      43.876 -16.344  38.159  0.00  0.00     0.000 A 
ATOM     24  C   UNL d   1      44.393 -16.131  37.547  0.00  0.00     0.000 A 
ATOM     25  C   UNL d   1      45.119 -16.520  37.472  0.00  0.00     0.000 A 
ATOM     26  C   UNL d   1      44.182 -15.535  37.018  0.00  0.00     0.000 C 
ATOM     27  C   UNL d   1      45.329 -17.117  38.001  0.00  0.00     0.002 A 
ENDBRANCH  20  21
ENDBRANCH  18  20
ENDBRANCH   5  17
BRANCH   3  28
ATOM     28  C   UNL d   1      46.647 -18.871  42.975  0.00  0.00     0.107 C 
BRANCH  28  29
ATOM     29  C   UNL d   1      46.172 -19.425  43.360  0.00  0.00     0.118 A 
ATOM     30  O   UNL d   1      45.468 -19.843  43.367  0.00  0.00    -0.304 OA
ATOM     31  C   UNL d   1      45.453 -20.327  44.032  0.00  0.00     0.123 A 
ATOM     32  C   UNL d   1      46.158 -20.210  44.444  0.00  0.00     0.029 A 
ATOM     33  C   UNL d   1      46.604 -19.652  44.031  0.00  0.00     0.028 A 
ENDBRANCH  28  29
ENDBRANCH   3  28
TORSDOF 5
ENDMDL
