MODEL 1
REMARK VINA RESULT:      19.4      0.000      0.000
REMARK  5 active torsions:
REMARK  status: ('A' for Active; 'I' for Inactive)
REMARK    1  A    between atoms: C_6  and  S_1 
REMARK    2  A    between atoms: C_9  and  S_1 
REMARK    3  A    between atoms: C_2  and  S_11 
REMARK    4  A    between atoms: N_4  and  C_3 
REMARK    5  A    between atoms: S_11  and  C_10 
ROOT
ATOM      1  C   UNL d   1      46.230 -18.843  43.877  0.00  0.00     0.133 A 
ATOM      2  C   UNL d   1      46.208 -19.271  43.173  0.00  0.00     0.035 A 
ATOM      3  C   UNL d   1      46.396 -18.901  42.458  0.00  0.00     0.094 A 
ATOM      4  C   UNL d   1      46.441 -18.041  43.866  0.00  0.00     0.054 A 
ATOM      5  C   UNL d   1      46.605 -18.102  42.452  0.00  0.00     0.012 A 
ATOM      6  C   UNL d   1      46.627 -17.674  43.154  0.00  0.00     0.009 A 
ENDROOT
BRANCH   4   7
ATOM      7  S   UNL d   1      46.463 -17.610  44.570  0.00  0.00    -0.047 SA
BRANCH   7   8
ATOM      8  C   UNL d   1      46.139 -16.852  44.599  0.00  0.00     0.194 A 
ATOM      9  N   UNL d   1      46.523 -16.158  44.385  0.00  0.00    -0.220 NA
ATOM     10  C   UNL d   1      45.995 -15.532  44.501  0.00  0.00     0.101 A 
ATOM     11  C   UNL d   1      46.068 -14.726  44.385  0.00  0.00     0.021 A 
ATOM     12  C   UNL d   1      45.289 -15.852  44.786  0.00  0.00     0.101 A 
ATOM     13  C   UNL d   1      45.437 -14.228  44.551  0.00  0.00     0.002 A 
ATOM     14  C   UNL d   1      44.726 -14.543  44.838  0.00  0.00     0.002 A 
ATOM     15  C   UNL d   1      44.654 -15.356  44.955  0.00  0.00     0.021 A 
ATOM     16  N   UNL d   1      45.379 -16.664  44.846  0.00  0.00    -0.220 NA
ENDBRANCH   7   8
ENDBRANCH   4   7
BRANCH   1  17
ATOM     17  N   UNL d   1      46.043 -19.211  44.593  0.00  0.00    -0.113 N 
ATOM     18  O   UNL d   1      46.590 -19.712  44.954  0.00  0.00    -0.532 OA
ATOM     19  O   UNL d   1      45.310 -19.078  44.946  0.00  0.00    -0.532 OA
ENDBRANCH   1  17
BRANCH   3  20
ATOM     20  S   UNL d   1      46.374 -19.328  41.759  0.00  0.00     0.278 S 
ATOM     21  O   UNL d   1      46.645 -19.997  42.148  0.00  0.00    -0.213 OA
ATOM     22  O   UNL d   1      46.352 -19.757  41.056  0.00  0.00    -0.213 OA
BRANCH  20  23
ATOM     23  C   UNL d   1      46.100 -18.657  41.359  0.00  0.00     0.503 C 
ATOM     24  F   UNL d   1      45.850 -18.049  40.998  0.00  0.00    -0.157 F 
ATOM     25  F   UNL d   1      45.306 -18.317  41.347  0.00  0.00    -0.157 F 
ATOM     26  F   UNL d   1      46.531 -18.112  40.846  0.00  0.00    -0.157 F 
ENDBRANCH  20  23
ENDBRANCH   3  20
TORSDOF 5
ENDMDL
MODEL 2
REMARK VINA RESULT:      20.0      3.166      4.740
REMARK  5 active torsions:
REMARK  status: ('A' for Active; 'I' for Inactive)
REMARK    1  A    between atoms: C_6  and  S_1 
REMARK    2  A    between atoms: C_9  and  S_1 
REMARK    3  A    between atoms: C_2  and  S_11 
REMARK    4  A    between atoms: N_4  and  C_3 
REMARK    5  A    between atoms: S_11  and  C_10 
ROOT
ATOM      1  C   UNL d   1      44.812 -14.607  44.656  0.00  0.00     0.133 A 
ATOM      2  C   UNL d   1      44.988 -13.834  44.426  0.00  0.00     0.035 A 
ATOM      3  C   UNL d   1      45.769 -13.619  44.262  0.00  0.00     0.094 A 
ATOM      4  C   UNL d   1      45.421 -15.165  44.724  0.00  0.00     0.054 A 
ATOM      5  C   UNL d   1      46.372 -14.179  44.331  0.00  0.00     0.012 A 
ATOM      6  C   UNL d   1      46.198 -14.949  44.561  0.00  0.00     0.009 A 
ENDROOT
BRANCH   4   7
ATOM      7  S   UNL d   1      45.248 -15.939  44.954  0.00  0.00    -0.047 SA
BRANCH   7   8
ATOM      8  C   UNL d   1      45.567 -16.574  44.536  0.00  0.00     0.194 A 
ATOM      9  N   UNL d   1      45.689 -16.601  43.724  0.00  0.00    -0.220 NA
ATOM     10  C   UNL d   1      46.017 -17.339  43.542  0.00  0.00     0.101 A 
ATOM     11  C   UNL d   1      46.252 -17.674  42.835  0.00  0.00     0.021 A 
ATOM     12  C   UNL d   1      46.093 -17.757  44.251  0.00  0.00     0.101 A 
ATOM     13  C   UNL d   1      46.566 -18.432  42.823  0.00  0.00     0.002 A 
ATOM     14  C   UNL d   1      46.644 -18.857  43.530  0.00  0.00     0.002 A 
ATOM     15  C   UNL d   1      46.407 -18.518  44.243  0.00  0.00     0.021 A 
ATOM     16  N   UNL d   1      45.816 -17.286  44.860  0.00  0.00    -0.220 NA
ENDBRANCH   7   8
ENDBRANCH   4   7
BRANCH   1  17
ATOM     17  N   UNL d   1      44.032 -14.824  44.820  0.00  0.00    -0.113 N 
ATOM     18  O   UNL d   1      43.826 -15.622  44.858  0.00  0.00    -0.532 OA
ATOM     19  O   UNL d   1      43.460 -14.244  44.946  0.00  0.00    -0.532 OA
ENDBRANCH   1  17
BRANCH   3  20
ATOM     20  S   UNL d   1      45.942 -12.852  44.033  0.00  0.00     0.278 S 
ATOM     21  O   UNL d   1      46.302 -12.708  44.756  0.00  0.00    -0.213 OA
ATOM     22  O   UNL d   1      46.116 -12.080  43.804  0.00  0.00    -0.213 OA
BRANCH  20  23
ATOM     23  C   UNL d   1      45.580 -12.989  43.302  0.00  0.00     0.503 C 
ATOM     24  F   UNL d   1      45.254 -13.114  42.638  0.00  0.00    -0.157 F 
ATOM     25  F   UNL d   1      45.941 -13.212  42.550  0.00  0.00    -0.157 F 
ATOM     26  F   UNL d   1      44.743 -12.949  43.089  0.00  0.00    -0.157 F 
ENDBRANCH  20  23
ENDBRANCH   3  20
TORSDOF 5
ENDMDL
