MODEL 1
REMARK VINA RESULT:      73.4      0.000      0.000
REMARK  6 active torsions:
REMARK  status: ('A' for Active; 'I' for Inactive)
REMARK    1  A    between atoms: C_7  and  C_1 
REMARK    2  A    between atoms: O_11  and  C_2 
REMARK    3  A    between atoms: O_13  and  C_10 
REMARK    4  A    between atoms: C_20  and  O_11 
REMARK    5  A    between atoms: C_21  and  C_12 
REMARK    6  A    between atoms: C_14  and  O_13 
ROOT
ATOM      1  C   UNL d   1     -58.480 -99.219 -44.575  0.00  0.00     0.197 A 
ATOM      2  C   UNL d   1     -58.550 -99.013 -43.758  0.00  0.00     0.165 A 
ATOM      3  O   UNL d   1     -57.732 -99.370 -44.896  0.00  0.00    -0.301 OA
ATOM      4  C   UNL d   1     -57.863 -98.967 -43.302  0.00  0.00     0.222 A 
ATOM      5  C   UNL d   1     -57.116 -99.118 -43.621  0.00  0.00     0.064 A 
ATOM      6  C   UNL d   1     -57.062 -99.323 -44.436  0.00  0.00     0.105 A 
ATOM      7  C   UNL d   1     -56.450 -99.070 -43.161  0.00  0.00     0.007 A 
ATOM      8  C   UNL d   1     -56.315 -99.474 -44.759  0.00  0.00     0.050 A 
ATOM      9  C   UNL d   1     -55.645 -99.424 -44.291  0.00  0.00     0.105 A 
ATOM     10  C   UNL d   1     -55.707 -99.220 -43.482  0.00  0.00     0.023 A 
ATOM     11  O   UNL d   1     -57.942 -98.759 -42.481  0.00  0.00    -0.284 OA
ENDROOT
BRANCH   2  12
ATOM     12  O   UNL d   1     -59.289 -98.859 -43.421  0.00  0.00    -0.302 OA
BRANCH  12  13
ATOM     13  C   UNL d   1     -59.510 -99.249 -42.738  0.00  0.00     0.100 A 
ATOM     14  C   UNL d   1     -59.575 -98.850 -42.013  0.00  0.00     0.025 A 
ATOM     15  C   UNL d   1     -59.794 -99.257 -41.354  0.00  0.00     0.002 A 
ATOM     16  C   UNL d   1     -59.957-100.067 -41.382  0.00  0.00     0.000 A 
ATOM     17  C   UNL d   1     -59.891-100.446 -42.088  0.00  0.00     0.002 A 
ATOM     18  C   UNL d   1     -59.672-100.060 -42.766  0.00  0.00     0.025 A 
ENDBRANCH  12  13
ENDBRANCH   2  12
BRANCH   1  19
ATOM     19  C   UNL d   1     -59.142 -99.275 -45.064  0.00  0.00     0.442 C 
ATOM     20  F   UNL d   1     -59.821 -99.333 -45.555  0.00  0.00    -0.164 F 
ATOM     21  F   UNL d   1     -58.672 -99.094 -45.734  0.00  0.00    -0.164 F 
ATOM     22  F   UNL d   1     -59.613 -99.456 -44.389  0.00  0.00    -0.164 F 
ENDBRANCH   1  19
BRANCH  10  23
ATOM     23  C   UNL d   1     -55.045 -99.165 -42.993  0.00  0.00     0.002 C 
ATOM     24  C   UNL d   1     -55.018 -99.526 -42.401  0.00  0.00     0.000 C 
ENDBRANCH  10  23
BRANCH   9  25
ATOM     25  O   UNL d   1     -54.911 -99.577 -44.626  0.00  0.00    -0.273 OA
BRANCH  25  26
ATOM     26  C   UNL d   1     -54.848 -99.947 -45.359  0.00  0.00     0.300 C 
ATOM     27  O   UNL d   1     -54.832 -99.496 -46.059  0.00  0.00    -0.259 OA
ATOM     28  C   UNL d   1     -54.802-100.754 -45.416  0.00  0.00     0.074 C 
ENDBRANCH  25  26
ENDBRANCH   9  25
TORSDOF 6
ENDMDL
