MODEL 1
REMARK VINA RESULT:      72.2      0.000      0.000
REMARK  5 active torsions:
REMARK  status: ('A' for Active; 'I' for Inactive)
REMARK    1  A    between atoms: N_6  and  C_1 
REMARK    2  A    between atoms: C_11  and  C_5 
REMARK       I    between atoms: C_7  and  N_8 
REMARK    3  A    between atoms: C_10  and  C_7 
REMARK    4  A    between atoms: O_27  and  C_14 
REMARK    5  A    between atoms: O_28  and  C_21 
ROOT
ATOM      1  C   UNL d   1      14.423  15.939  -4.007  0.00  0.00     0.197 A 
ATOM      2  C   UNL d   1      14.715  15.923  -3.225  0.00  0.00     0.191 A 
ATOM      3  O   UNL d   1      14.063  15.207  -4.163  0.00  0.00    -0.270 OA
ATOM      4  N   UNL d   1      14.528  15.186  -2.921  0.00  0.00    -0.208 NA
ATOM      5  C   UNL d   1      14.145  14.765  -3.470  0.00  0.00     0.185 A 
ATOM      6  C   UNL d   1      15.126  16.551  -2.823  0.00  0.00     0.124 C 
ATOM      7  N   UNL d   1      15.530  17.155  -2.415  0.00  0.00    -0.190 NA
ENDROOT
BRANCH   1   8
ATOM      8  N   UNL d   1      14.594  16.677  -4.356  0.00  0.00    -0.280 N 
ATOM      9  C   UNL d   1      15.389  16.961  -4.325  0.00  0.00     0.101 A 
ATOM     10  C   UNL d   1      15.560  17.700  -4.674  0.00  0.00     0.102 A 
ATOM     11  N   UNL d   1      14.948  18.147  -5.047  0.00  0.00    -0.267 N 
ATOM     12  C   UNL d   1      15.119  18.886  -5.396  0.00  0.00     0.288 C 
ATOM     13  C   UNL d   1      14.175  17.852  -5.068  0.00  0.00     0.102 A 
ATOM     14  O   UNL d   1      15.892  19.181  -5.376  0.00  0.00    -0.264 OA
ATOM     15  C   UNL d   1      14.014  17.109  -4.715  0.00  0.00     0.101 A 
BRANCH  12  16
ATOM     16  C   UNL d   1      14.511  19.331  -5.768  0.00  0.00     0.156 A 
ATOM     17  O   UNL d   1      13.749  19.134  -6.022  0.00  0.00    -0.300 OA
ATOM     18  C   UNL d   1      13.417  19.796  -6.343  0.00  0.00     0.123 A 
ATOM     19  C   UNL d   1      13.943  20.424  -6.307  0.00  0.00     0.029 A 
ATOM     20  C   UNL d   1      14.628  20.138  -5.948  0.00  0.00     0.032 A 
ENDBRANCH  12  16
ENDBRANCH   1   8
BRANCH   5  21
ATOM     21  C   UNL d   1      13.966  14.050  -3.168  0.00  0.00     0.043 A 
ATOM     22  C   UNL d   1      13.507  13.527  -3.578  0.00  0.00     0.030 A 
ATOM     23  C   UNL d   1      13.320  12.791  -3.274  0.00  0.00     0.116 A 
ATOM     24  C   UNL d   1      13.603  12.576  -2.537  0.00  0.00     0.116 A 
ATOM     25  C   UNL d   1      14.063  13.105  -2.129  0.00  0.00     0.026 A 
ATOM     26  C   UNL d   1      14.251  13.840  -2.433  0.00  0.00     0.006 A 
BRANCH  23  27
ATOM     27  O   UNL d   1      12.836  12.268  -3.730  0.00  0.00    -0.326 OA
ATOM     28  C   UNL d   1      13.001  12.112  -4.516  0.00  0.00     0.181 C 
ENDBRANCH  23  27
BRANCH  24  29
ATOM     29  O   UNL d   1      13.424  11.839  -2.214  0.00  0.00    -0.326 OA
ATOM     30  C   UNL d   1      12.939  11.779  -1.560  0.00  0.00     0.181 C 
ENDBRANCH  24  29
ENDBRANCH   5  21
TORSDOF 5
ENDMDL
