MODEL 1
REMARK VINA RESULT:       6.9      0.000      0.000
REMARK  9 active torsions:
REMARK  status: ('A' for Active; 'I' for Inactive)
REMARK    1  A    between atoms: C_10  and  S_1 
REMARK    2  A    between atoms: N_11  and  S_1 
REMARK    3  A    between atoms: C_8  and  C_2 
REMARK    4  A    between atoms: C_3  and  N_6 
REMARK       I    between atoms: N_6  and  C_9 
REMARK    5  A    between atoms: C_9  and  C_14 
REMARK    6  A    between atoms: C_23  and  N_11 
REMARK    7  A    between atoms: C_24  and  N_11 
REMARK    8  A    between atoms: C_26  and  C_24 
REMARK    9  A    between atoms: C_27  and  C_26 
ROOT
ATOM      1  C   UNL d   1     -41.761-121.537 -53.181  0.00  0.00     0.104 A 
ATOM      2  C   UNL d   1     -41.430-120.635 -51.829  0.00  0.00     0.058 A 
ATOM      3  C   UNL d   1     -41.442-121.890 -52.506  0.00  0.00     0.013 A 
ATOM      4  C   UNL d   1     -41.911-120.738 -53.172  0.00  0.00     0.013 A 
ATOM      5  C   UNL d   1     -41.279-121.433 -51.834  0.00  0.00     0.005 A 
ATOM      6  C   UNL d   1     -41.749-120.283 -52.503  0.00  0.00     0.005 A 
ENDROOT
BRANCH   2   7
ATOM      7  C   UNL d   1     -41.265-120.176 -51.149  0.00  0.00     0.282 C 
ATOM      8  N   UNL d   1     -41.245-120.532 -50.401  0.00  0.00    -0.165 NA
ATOM      9  O   UNL d   1     -41.123-119.381 -51.222  0.00  0.00    -0.265 OA
BRANCH   8  10
ATOM     10  C   UNL d   1     -41.387-121.326 -50.326  0.00  0.00     0.297 A 
ATOM     11  O   UNL d   1     -41.825-121.610 -49.687  0.00  0.00    -0.253 OA
ATOM     12  C   UNL d   1     -41.876-122.426 -49.761  0.00  0.00     0.207 A 
ATOM     13  N   UNL d   1     -41.471-122.639 -50.440  0.00  0.00    -0.119 NA
ATOM     14  N   UNL d   1     -41.165-121.961 -50.795  0.00  0.00    -0.101 NA
BRANCH  12  15
ATOM     15  C   UNL d   1     -42.280-122.888 -49.209  0.00  0.00     0.054 A 
ATOM     16  C   UNL d   1     -41.948-123.008 -48.465  0.00  0.00     0.061 A 
ATOM     17 CL   UNL d   1     -41.221-122.670 -48.275  0.00  0.00    -0.082 Cl
ATOM     18  C   UNL d   1     -42.350-123.468 -47.914  0.00  0.00     0.011 A 
ATOM     19  C   UNL d   1     -43.087-123.816 -48.092  0.00  0.00     0.001 A 
ATOM     20  C   UNL d   1     -43.417-123.699 -48.828  0.00  0.00     0.000 A 
ATOM     21  C   UNL d   1     -43.011-123.232 -49.389  0.00  0.00     0.004 A 
ENDBRANCH  12  15
ENDBRANCH   8  10
ENDBRANCH   2   7
BRANCH   1  22
ATOM     22  S   UNL d   1     -41.929-121.988 -53.863  0.00  0.00     0.271 S 
ATOM     23  O   UNL d   1     -42.664-122.209 -53.550  0.00  0.00    -0.200 OA
ATOM     24  O   UNL d   1     -41.197-121.768 -54.175  0.00  0.00    -0.200 OA
BRANCH  22  25
ATOM     25  N   UNL d   1     -42.099-122.446 -54.556  0.00  0.00    -0.229 N 
BRANCH  25  26
ATOM     26  C   UNL d   1     -41.968-123.260 -54.571  0.00  0.00     0.092 C 
ATOM     27  C   UNL d   1     -42.606-123.783 -54.600  0.00  0.00     0.021 C 
ENDBRANCH  25  26
BRANCH  25  28
ATOM     28  C   UNL d   1     -42.401-122.067 -55.222  0.00  0.00     0.092 C 
BRANCH  28  29
ATOM     29  C   UNL d   1     -41.916-121.958 -55.879  0.00  0.00     0.020 C 
BRANCH  29  30
ATOM     30  C   UNL d   1     -42.162-121.458 -56.484  0.00  0.00     0.002 C 
ATOM     31  C   UNL d   1     -41.688-120.821 -56.705  0.00  0.00     0.000 C 
ENDBRANCH  29  30
ENDBRANCH  28  29
ENDBRANCH  25  28
ENDBRANCH  22  25
ENDBRANCH   1  22
TORSDOF 9
ENDMDL
