MODEL 1
REMARK VINA RESULT:      -4.2      0.000      0.000
REMARK  1 active torsions:
REMARK  status: ('A' for Active; 'I' for Inactive)
REMARK    1  A    between atoms: C_12  and  N_4 
ROOT
ATOM      1  C   UNL d   1      57.389  -0.353  31.502  0.00  0.00     0.081 A 
ATOM      2  C   UNL d   1      57.621   0.377  31.791  0.00  0.00     0.118 A 
ATOM      3  C   UNL d   1      56.833  -0.810  31.936  0.00  0.00     0.268 A 
ATOM      4  N   UNL d   1      56.526  -0.525  32.644  0.00  0.00    -0.249 N 
ATOM      5  N   UNL d   1      57.327   0.681  32.496  0.00  0.00    -0.212 NA
ATOM      6  C   UNL d   1      56.772   0.224  32.929  0.00  0.00     0.209 A 
ATOM      7  S   UNL d   1      58.175   0.680  31.226  0.00  0.00    -0.068 SA
ATOM      8  C   UNL d   1      57.782  -0.493  30.790  0.00  0.00     0.013 A 
ATOM      9  C   UNL d   1      58.268   0.174  30.643  0.00  0.00     0.031 A 
ATOM     10  S   UNL d   1      56.481   0.546  33.645  0.00  0.00    -0.038 SA
ATOM     11  O   UNL d   1      56.577  -1.570  31.656  0.00  0.00    -0.267 OA
ATOM     12  C   UNL d   1      57.767  -1.125  30.262  0.00  0.00     0.001 A 
ATOM     13  C   UNL d   1      58.737   0.190  29.955  0.00  0.00     0.006 A 
ATOM     14  C   UNL d   1      58.231  -1.102  29.587  0.00  0.00     0.000 A 
ATOM     15  C   UNL d   1      58.713  -0.453  29.431  0.00  0.00     0.001 A 
ENDROOT
BRANCH   4  16
ATOM     16  C   UNL d   1      55.975  -0.988  33.065  0.00  0.00     0.085 C 
ATOM     17  C   UNL d   1      55.251  -0.673  33.285  0.00  0.00     0.021 C 
ENDBRANCH   4  16
TORSDOF 1
ENDMDL
MODEL 2
REMARK VINA RESULT:      -4.0      1.095      3.274
REMARK  1 active torsions:
REMARK  status: ('A' for Active; 'I' for Inactive)
REMARK    1  A    between atoms: C_12  and  N_4 
ROOT
ATOM      1  C   UNL d   1      57.124   0.254  32.369  0.00  0.00     0.081 A 
ATOM      2  C   UNL d   1      57.751   0.540  32.811  0.00  0.00     0.118 A 
ATOM      3  C   UNL d   1      57.234   0.101  31.550  0.00  0.00     0.268 A 
ATOM      4  N   UNL d   1      57.965   0.236  31.197  0.00  0.00    -0.249 N 
ATOM      5  N   UNL d   1      58.490   0.682  32.480  0.00  0.00    -0.212 NA
ATOM      6  C   UNL d   1      58.600   0.529  31.662  0.00  0.00     0.209 A 
ATOM      7  S   UNL d   1      57.452   0.630  33.598  0.00  0.00    -0.068 SA
ATOM      8  C   UNL d   1      56.468   0.173  32.862  0.00  0.00     0.013 A 
ATOM      9  C   UNL d   1      56.706   0.417  33.628  0.00  0.00     0.031 A 
ATOM     10  S   UNL d   1      59.357   0.678  31.338  0.00  0.00    -0.038 SA
ATOM     11  O   UNL d   1      56.599  -0.195  31.070  0.00  0.00    -0.267 OA
ATOM     12  C   UNL d   1      55.698  -0.085  32.725  0.00  0.00     0.001 A 
ATOM     13  C   UNL d   1      56.152   0.395  34.250  0.00  0.00     0.006 A 
ATOM     14  C   UNL d   1      55.159  -0.104  33.341  0.00  0.00     0.000 A 
ATOM     15  C   UNL d   1      55.380   0.133  34.099  0.00  0.00     0.001 A 
ENDROOT
BRANCH   4  16
ATOM     16  C   UNL d   1      58.061   0.080  30.385  0.00  0.00     0.085 C 
ATOM     17  C   UNL d   1      57.904   0.663  29.829  0.00  0.00     0.021 C 
ENDBRANCH   4  16
TORSDOF 1
ENDMDL
MODEL 3
REMARK VINA RESULT:      -3.8      1.075      3.116
REMARK  1 active torsions:
REMARK  status: ('A' for Active; 'I' for Inactive)
REMARK    1  A    between atoms: C_12  and  N_4 
ROOT
ATOM      1  C   UNL d   1      57.346  -0.393  31.382  0.00  0.00     0.081 A 
ATOM      2  C   UNL d   1      57.641   0.366  31.462  0.00  0.00     0.118 A 
ATOM      3  C   UNL d   1      57.601  -0.869  30.738  0.00  0.00     0.268 A 
ATOM      4  N   UNL d   1      58.142  -0.574  30.194  0.00  0.00    -0.249 N 
ATOM      5  N   UNL d   1      58.182   0.682  30.930  0.00  0.00    -0.212 NA
ATOM      6  C   UNL d   1      58.437   0.206  30.286  0.00  0.00     0.209 A 
ATOM      7  S   UNL d   1      57.273   0.682  32.156  0.00  0.00    -0.068 SA
ATOM      8  C   UNL d   1      56.820  -0.539  32.000  0.00  0.00     0.013 A 
ATOM      9  C   UNL d   1      56.796   0.156  32.470  0.00  0.00     0.031 A 
ATOM     10  S   UNL d   1      58.989   0.541  29.752  0.00  0.00    -0.038 SA
ATOM     11  O   UNL d   1      57.309  -1.660  30.635  0.00  0.00    -0.267 OA
ATOM     12  C   UNL d   1      56.365  -1.196  32.201  0.00  0.00     0.001 A 
ATOM     13  C   UNL d   1      56.305   0.173  33.143  0.00  0.00     0.006 A 
ATOM     14  C   UNL d   1      55.885  -1.171  32.864  0.00  0.00     0.000 A 
ATOM     15  C   UNL d   1      55.852  -0.495  33.334  0.00  0.00     0.001 A 
ENDROOT
BRANCH   4  16
ATOM     16  C   UNL d   1      58.387  -1.056  29.560  0.00  0.00     0.085 C 
ATOM     17  C   UNL d   1      59.115  -1.432  29.582  0.00  0.00     0.021 C 
ENDBRANCH   4  16
TORSDOF 1
ENDMDL
MODEL 4
REMARK VINA RESULT:      -3.4      1.320      3.510
REMARK  1 active torsions:
REMARK  status: ('A' for Active; 'I' for Inactive)
REMARK    1  A    between atoms: C_12  and  N_4 
ROOT
ATOM      1  C   UNL d   1      56.910  -0.345  32.218  0.00  0.00     0.081 A 
ATOM      2  C   UNL d   1      56.571  -1.028  31.920  0.00  0.00     0.118 A 
ATOM      3  C   UNL d   1      57.591  -0.025  31.845  0.00  0.00     0.268 A 
ATOM      4  N   UNL d   1      57.915  -0.396  31.185  0.00  0.00    -0.249 N 
ATOM      5  N   UNL d   1      56.877  -1.415  31.262  0.00  0.00    -0.212 NA
ATOM      6  C   UNL d   1      57.558  -1.096  30.889  0.00  0.00     0.209 A 
ATOM      7  S   UNL d   1      55.908  -1.190  32.421  0.00  0.00    -0.068 SA
ATOM      8  C   UNL d   1      56.474  -0.098  32.874  0.00  0.00     0.013 A 
ATOM      9  C   UNL d   1      55.851  -0.650  32.976  0.00  0.00     0.031 A 
ATOM     10  S   UNL d   1      57.859  -1.501  30.221  0.00  0.00    -0.038 SA
ATOM     11  O   UNL d   1      57.960   0.682  32.136  0.00  0.00    -0.267 OA
ATOM     12  C   UNL d   1      56.554   0.542  33.386  0.00  0.00     0.001 A 
ATOM     13  C   UNL d   1      55.313  -0.543  33.602  0.00  0.00     0.006 A 
ATOM     14  C   UNL d   1      56.021   0.641  34.000  0.00  0.00     0.000 A 
ATOM     15  C   UNL d   1      55.405   0.106  34.111  0.00  0.00     0.001 A 
ENDROOT
BRANCH   4  16
ATOM     16  C   UNL d   1      58.591  -0.070  30.824  0.00  0.00     0.085 C 
ATOM     17  C   UNL d   1      58.517   0.405  30.159  0.00  0.00     0.021 C 
ENDBRANCH   4  16
TORSDOF 1
ENDMDL
MODEL 5
REMARK VINA RESULT:      -3.1      9.290      9.738
REMARK  1 active torsions:
REMARK  status: ('A' for Active; 'I' for Inactive)
REMARK    1  A    between atoms: C_12  and  N_4 
ROOT
ATOM      1  C   UNL d   1      59.874  -8.898  34.140  0.00  0.00     0.081 A 
ATOM      2  C   UNL d   1      60.630  -8.899  33.825  0.00  0.00     0.118 A 
ATOM      3  C   UNL d   1      59.239  -9.209  33.687  0.00  0.00     0.268 A 
ATOM      4  N   UNL d   1      59.375  -9.512  32.935  0.00  0.00    -0.249 N 
ATOM      5  N   UNL d   1      60.790  -9.197  33.075  0.00  0.00    -0.212 NA
ATOM      6  C   UNL d   1      60.154  -9.508  32.623  0.00  0.00     0.209 A 
ATOM      7  S   UNL d   1      61.125  -8.552  34.418  0.00  0.00    -0.068 SA
ATOM      8  C   UNL d   1      59.903  -8.564  34.894  0.00  0.00     0.013 A 
ATOM      9  C   UNL d   1      60.702  -8.357  35.040  0.00  0.00     0.031 A 
ATOM     10  S   UNL d   1      60.332  -9.808  31.862  0.00  0.00    -0.038 SA
ATOM     11  O   UNL d   1      58.446  -9.218  33.992  0.00  0.00    -0.267 OA
ATOM     12  C   UNL d   1      59.323  -8.422  35.461  0.00  0.00     0.001 A 
ATOM     13  C   UNL d   1      60.903  -8.004  35.767  0.00  0.00     0.006 A 
ATOM     14  C   UNL d   1      59.528  -8.074  36.174  0.00  0.00     0.000 A 
ATOM     15  C   UNL d   1      60.309  -7.866  36.330  0.00  0.00     0.001 A 
ENDROOT
BRANCH   4  16
ATOM     16  C   UNL d   1      58.736  -9.818  32.496  0.00  0.00     0.085 C 
ATOM     17  C   UNL d   1      58.412  -9.385  31.880  0.00  0.00     0.021 C 
ENDBRANCH   4  16
TORSDOF 1
ENDMDL
MODEL 6
REMARK VINA RESULT:      -3.0      2.807      4.001
REMARK  1 active torsions:
REMARK  status: ('A' for Active; 'I' for Inactive)
REMARK    1  A    between atoms: C_12  and  N_4 
ROOT
ATOM      1  C   UNL d   1      59.514  -1.630  29.125  0.00  0.00     0.081 A 
ATOM      2  C   UNL d   1      60.312  -1.446  29.128  0.00  0.00     0.118 A 
ATOM      3  C   UNL d   1      58.953  -1.037  29.325  0.00  0.00     0.268 A 
ATOM      4  N   UNL d   1      59.205  -0.278  29.522  0.00  0.00    -0.249 N 
ATOM      5  N   UNL d   1      60.586  -0.695  29.321  0.00  0.00    -0.212 NA
ATOM      6  C   UNL d   1      60.025  -0.103  29.522  0.00  0.00     0.209 A 
ATOM      7  S   UNL d   1      60.710  -2.159  28.904  0.00  0.00    -0.068 SA
ATOM      8  C   UNL d   1      59.425  -2.421  28.909  0.00  0.00     0.013 A 
ATOM      9  C   UNL d   1      60.195  -2.726  28.776  0.00  0.00     0.031 A 
ATOM     10  S   UNL d   1      60.319   0.657  29.716  0.00  0.00    -0.038 SA
ATOM     11  O   UNL d   1      58.121  -1.203  29.329  0.00  0.00    -0.267 OA
ATOM     12  C   UNL d   1      58.762  -2.901  28.815  0.00  0.00     0.001 A 
ATOM     13  C   UNL d   1      60.281  -3.522  28.548  0.00  0.00     0.006 A 
ATOM     14  C   UNL d   1      58.855  -3.683  28.590  0.00  0.00     0.000 A 
ATOM     15  C   UNL d   1      59.606  -3.995  28.457  0.00  0.00     0.001 A 
ENDROOT
BRANCH   4  16
ATOM     16  C   UNL d   1      58.640   0.301  29.719  0.00  0.00     0.085 C 
ATOM     17  C   UNL d   1      58.442   0.438  30.503  0.00  0.00     0.021 C 
ENDBRANCH   4  16
TORSDOF 1
ENDMDL
MODEL 7
REMARK VINA RESULT:      -3.0      1.772      3.542
REMARK  1 active torsions:
REMARK  status: ('A' for Active; 'I' for Inactive)
REMARK    1  A    between atoms: C_12  and  N_4 
ROOT
ATOM      1  C   UNL d   1      57.874   0.664  31.665  0.00  0.00     0.081 A 
ATOM      2  C   UNL d   1      57.278   0.654  31.105  0.00  0.00     0.118 A 
ATOM      3  C   UNL d   1      58.676   0.671  31.415  0.00  0.00     0.268 A 
ATOM      4  N   UNL d   1      58.859   0.667  30.613  0.00  0.00    -0.249 N 
ATOM      5  N   UNL d   1      57.438   0.650  30.298  0.00  0.00    -0.212 NA
ATOM      6  C   UNL d   1      58.239   0.656  30.047  0.00  0.00     0.209 A 
ATOM      7  S   UNL d   1      56.553   0.649  31.543  0.00  0.00    -0.068 SA
ATOM      8  C   UNL d   1      57.532   0.666  32.416  0.00  0.00     0.013 A 
ATOM      9  C   UNL d   1      56.700   0.657  32.305  0.00  0.00     0.031 A 
ATOM     10  S   UNL d   1      58.387   0.652  29.224  0.00  0.00    -0.038 SA
ATOM     11  O   UNL d   1      59.312   0.681  31.978  0.00  0.00    -0.267 OA
ATOM     12  C   UNL d   1      57.853   0.675  33.174  0.00  0.00     0.001 A 
ATOM     13  C   UNL d   1      56.203   0.656  32.973  0.00  0.00     0.006 A 
ATOM     14  C   UNL d   1      57.357   0.674  33.826  0.00  0.00     0.000 A 
ATOM     15  C   UNL d   1      56.539   0.665  33.731  0.00  0.00     0.001 A 
ENDROOT
BRANCH   4  16
ATOM     16  C   UNL d   1      59.658   0.673  30.377  0.00  0.00     0.085 C 
ATOM     17  C   UNL d   1      59.996   0.007  30.037  0.00  0.00     0.021 C 
ENDBRANCH   4  16
TORSDOF 1
ENDMDL
MODEL 8
REMARK VINA RESULT:      -2.3      1.672      2.111
REMARK  1 active torsions:
REMARK  status: ('A' for Active; 'I' for Inactive)
REMARK    1  A    between atoms: C_12  and  N_4 
ROOT
ATOM      1  C   UNL d   1      57.023   0.659  32.804  0.00  0.00     0.081 A 
ATOM      2  C   UNL d   1      56.325   0.647  32.377  0.00  0.00     0.118 A 
ATOM      3  C   UNL d   1      56.993   0.664  33.644  0.00  0.00     0.268 A 
ATOM      4  N   UNL d   1      56.268   0.656  34.032  0.00  0.00    -0.249 N 
ATOM      5  N   UNL d   1      55.589   0.639  32.744  0.00  0.00    -0.212 NA
ATOM      6  C   UNL d   1      55.559   0.644  33.584  0.00  0.00     0.209 A 
ATOM      7  S   UNL d   1      56.556   0.646  31.563  0.00  0.00    -0.068 SA
ATOM      8  C   UNL d   1      57.656   0.665  32.276  0.00  0.00     0.013 A 
ATOM      9  C   UNL d   1      57.330   0.656  31.503  0.00  0.00     0.031 A 
ATOM     10  S   UNL d   1      54.803   0.636  33.944  0.00  0.00    -0.038 SA
ATOM     11  O   UNL d   1      57.704   0.676  34.108  0.00  0.00    -0.267 OA
ATOM     12  C   UNL d   1      58.473   0.676  32.385  0.00  0.00     0.001 A 
ATOM     13  C   UNL d   1      57.843   0.659  30.847  0.00  0.00     0.006 A 
ATOM     14  C   UNL d   1      58.970   0.679  31.735  0.00  0.00     0.000 A 
ATOM     15  C   UNL d   1      58.663   0.671  30.971  0.00  0.00     0.001 A 
ENDROOT
BRANCH   4  16
ATOM     16  C   UNL d   1      56.251   0.661  34.865  0.00  0.00     0.085 C 
ATOM     17  C   UNL d   1      55.537   0.616  35.266  0.00  0.00     0.021 C 
ENDBRANCH   4  16
TORSDOF 1
ENDMDL
MODEL 9
REMARK VINA RESULT:      -2.1      1.491      1.768
REMARK  1 active torsions:
REMARK  status: ('A' for Active; 'I' for Inactive)
REMARK    1  A    between atoms: C_12  and  N_4 
ROOT
ATOM      1  C   UNL d   1      58.097   0.664  31.292  0.00  0.00     0.081 A 
ATOM      2  C   UNL d   1      57.394   0.658  30.871  0.00  0.00     0.118 A 
ATOM      3  C   UNL d   1      58.075   0.672  32.131  0.00  0.00     0.268 A 
ATOM      4  N   UNL d   1      57.353   0.674  32.527  0.00  0.00    -0.249 N 
ATOM      5  N   UNL d   1      56.662   0.661  31.245  0.00  0.00    -0.212 NA
ATOM      6  C   UNL d   1      56.640   0.669  32.085  0.00  0.00     0.209 A 
ATOM      7  S   UNL d   1      57.617   0.651  30.054  0.00  0.00    -0.068 SA
ATOM      8  C   UNL d   1      58.725   0.660  30.757  0.00  0.00     0.013 A 
ATOM      9  C   UNL d   1      58.391   0.652  29.987  0.00  0.00     0.031 A 
ATOM     10  S   UNL d   1      55.888   0.671  32.452  0.00  0.00    -0.038 SA
ATOM     11  O   UNL d   1      58.790   0.677  32.589  0.00  0.00    -0.267 OA
ATOM     12  C   UNL d   1      59.542   0.662  30.858  0.00  0.00     0.001 A 
ATOM     13  C   UNL d   1      58.897   0.646  29.326  0.00  0.00     0.006 A 
ATOM     14  C   UNL d   1      60.034   0.657  30.203  0.00  0.00     0.000 A 
ATOM     15  C   UNL d   1      59.719   0.649  29.442  0.00  0.00     0.001 A 
ENDROOT
BRANCH   4  16
ATOM     16  C   UNL d   1      57.345   0.682  33.360  0.00  0.00     0.085 C 
ATOM     17  C   UNL d   1      56.863   0.164  33.775  0.00  0.00     0.021 C 
ENDBRANCH   4  16
TORSDOF 1
ENDMDL
