MODEL 1
REMARK VINA RESULT:      13.7      0.000      0.000
REMARK  5 active torsions:
REMARK  status: ('A' for Active; 'I' for Inactive)
REMARK    1  A    between atoms: C_3  and  N_1 
REMARK    2  A    between atoms: C_6  and  C_3 
REMARK    3  A    between atoms: C_9  and  C_3 
REMARK    4  A    between atoms: N_5  and  C_6 
REMARK    5  A    between atoms: O_18  and  C_14 
ROOT
ATOM      1  C   UNL d   1      46.485 -18.899  43.292  0.00  0.00     0.106 C 
ENDROOT
BRANCH   1   2
ATOM      2  N   UNL d   1      46.539 -18.849  42.460  0.00  0.00    -0.228 N 
ATOM      3  N   UNL d   1      46.539 -18.204  41.948  0.00  0.00    -0.165 NA
ATOM      4  C   UNL d   1      46.607 -18.511  41.179  0.00  0.00     0.103 A 
ATOM      5  C   UNL d   1      46.632 -18.083  40.473  0.00  0.00     0.022 C 
ATOM      6  C   UNL d   1      46.646 -19.338  41.241  0.00  0.00     0.040 A 
ATOM      7  C   UNL d   1      46.605 -19.539  42.016  0.00  0.00     0.085 A 
ATOM      8  C   UNL d   1      46.626 -20.327  42.307  0.00  0.00     0.021 C 
ENDBRANCH   1   2
BRANCH   1   9
ATOM      9  C   UNL d   1      46.646 -19.631  43.662  0.00  0.00     0.167 C 
BRANCH   9  10
ATOM     10  N   UNL d   1      46.092 -19.980  44.154  0.00  0.00    -0.111 N 
ATOM     11  O   UNL d   1      45.315 -20.077  43.894  0.00  0.00    -0.532 OA
ATOM     12  O   UNL d   1      46.312 -20.231  44.901  0.00  0.00    -0.532 OA
ENDBRANCH   9  10
ENDBRANCH   1   9
BRANCH   1  13
ATOM     13  C   UNL d   1      46.275 -18.225  43.737  0.00  0.00     0.019 A 
ATOM     14  C   UNL d   1      46.399 -18.189  44.559  0.00  0.00     0.004 A 
ATOM     15  C   UNL d   1      46.178 -17.511  44.954  0.00  0.00     0.024 A 
ATOM     16  C   UNL d   1      45.838 -16.879  44.531  0.00  0.00     0.094 A 
ATOM     17  C   UNL d   1      45.725 -16.928  43.743  0.00  0.00     0.024 A 
ATOM     18  C   UNL d   1      45.942 -17.604  43.328  0.00  0.00     0.004 A 
BRANCH  16  19
ATOM     19  O   UNL d   1      45.614 -16.188  44.943  0.00  0.00    -0.328 OA
ATOM     20  C   UNL d   1      45.846 -15.436  44.664  0.00  0.00     0.181 C 
ENDBRANCH  16  19
ENDBRANCH   1  13
TORSDOF 5
ENDMDL
MODEL 2
REMARK VINA RESULT:      14.4      3.389      5.466
REMARK  5 active torsions:
REMARK  status: ('A' for Active; 'I' for Inactive)
REMARK    1  A    between atoms: C_3  and  N_1 
REMARK    2  A    between atoms: C_6  and  C_3 
REMARK    3  A    between atoms: C_9  and  C_3 
REMARK    4  A    between atoms: N_5  and  C_6 
REMARK    5  A    between atoms: O_18  and  C_14 
ROOT
ATOM      1  C   UNL d   1      44.893 -13.730  44.480  0.00  0.00     0.106 C 
ENDROOT
BRANCH   1   2
ATOM      2  N   UNL d   1      45.159 -13.172  43.918  0.00  0.00    -0.228 N 
ATOM      3  N   UNL d   1      45.064 -13.129  43.102  0.00  0.00    -0.165 NA
ATOM      4  C   UNL d   1      45.458 -12.443  42.852  0.00  0.00     0.103 A 
ATOM      5  C   UNL d   1      45.521 -12.158  42.079  0.00  0.00     0.022 C 
ATOM      6  C   UNL d   1      45.786 -12.082  43.524  0.00  0.00     0.040 A 
ATOM      7  C   UNL d   1      45.604 -12.525  44.167  0.00  0.00     0.085 A 
ATOM      8  C   UNL d   1      45.836 -12.345  44.954  0.00  0.00     0.021 C 
ENDBRANCH   1   2
BRANCH   1   9
ATOM      9  C   UNL d   1      44.208 -13.555  44.927  0.00  0.00     0.167 C 
BRANCH   9  10
ATOM     10  N   UNL d   1      43.467 -13.776  44.657  0.00  0.00    -0.111 N 
ATOM     11  O   UNL d   1      43.083 -13.319  44.089  0.00  0.00    -0.532 OA
ATOM     12  O   UNL d   1      43.112 -14.451  44.954  0.00  0.00    -0.532 OA
ENDBRANCH   9  10
ENDBRANCH   1   9
BRANCH   1  13
ATOM     13  C   UNL d   1      45.310 -14.445  44.588  0.00  0.00     0.019 A 
ATOM     14  C   UNL d   1      46.136 -14.458  44.688  0.00  0.00     0.004 A 
ATOM     15  C   UNL d   1      46.501 -15.180  44.790  0.00  0.00     0.024 A 
ATOM     16  C   UNL d   1      46.045 -15.877  44.792  0.00  0.00     0.094 A 
ATOM     17  C   UNL d   1      45.254 -15.848  44.694  0.00  0.00     0.024 A 
ATOM     18  C   UNL d   1      44.868 -15.129  44.590  0.00  0.00     0.004 A 
BRANCH  16  19
ATOM     19  O   UNL d   1      46.427 -16.612  44.897  0.00  0.00    -0.328 OA
ATOM     20  C   UNL d   1      46.072 -17.316  44.621  0.00  0.00     0.181 C 
ENDBRANCH  16  19
ENDBRANCH   1  13
TORSDOF 5
ENDMDL
