MODEL 1
REMARK VINA RESULT:      -5.1      0.000      0.000
REMARK  1 active torsions:
REMARK  status: ('A' for Active; 'I' for Inactive)
REMARK    1  A    between atoms: C_7  and  N_1 
ROOT
ATOM      1  N   UNL d   1      57.449   0.220  31.901  0.00  0.00    -0.259 N 
ATOM      2  C   UNL d   1      57.445   0.064  31.078  0.00  0.00     0.267 A 
ATOM      3  C   UNL d   1      58.123   0.526  32.270  0.00  0.00     0.150 A 
ATOM      4  N   UNL d   1      58.806   0.682  31.819  0.00  0.00    -0.228 NA
ATOM      5  C   UNL d   1      58.128   0.222  30.637  0.00  0.00     0.074 A 
ATOM      6  C   UNL d   1      58.809   0.531  31.010  0.00  0.00     0.088 A 
ATOM      7  O   UNL d   1      56.770  -0.240  30.718  0.00  0.00    -0.267 OA
ATOM      8  C   UNL d   1      58.124   0.679  33.081  0.00  0.00     0.041 C 
ATOM      9  C   UNL d   1      58.126   0.069  29.829  0.00  0.00     0.006 A 
ATOM     10  C   UNL d   1      59.482   0.682  30.553  0.00  0.00     0.019 A 
ATOM     11  C   UNL d   1      58.805   0.225  29.385  0.00  0.00     0.000 A 
ATOM     12  C   UNL d   1      59.480   0.530  29.746  0.00  0.00     0.002 A 
ENDROOT
BRANCH   1  13
ATOM     13  C   UNL d   1      56.776   0.068  32.348  0.00  0.00     0.068 A 
ATOM     14  C   UNL d   1      56.242   0.679  32.518  0.00  0.00     0.020 A 
ATOM     15  C   UNL d   1      55.568   0.518  32.968  0.00  0.00     0.031 A 
ATOM     16  C   UNL d   1      55.422  -0.242  33.248  0.00  0.00     0.140 A 
ATOM     17  C   UNL d   1      55.958  -0.846  33.076  0.00  0.00     0.031 A 
ATOM     18  F   UNL d   1      54.750  -0.395  33.695  0.00  0.00    -0.204 F 
ATOM     19  C   UNL d   1      56.632  -0.689  32.628  0.00  0.00     0.020 A 
ENDBRANCH   1  13
TORSDOF 1
ENDMDL
MODEL 2
REMARK VINA RESULT:      -4.1      1.644      3.555
REMARK  1 active torsions:
REMARK  status: ('A' for Active; 'I' for Inactive)
REMARK    1  A    between atoms: C_7  and  N_1 
ROOT
ATOM      1  N   UNL d   1      57.384   0.216  31.860  0.00  0.00    -0.259 N 
ATOM      2  C   UNL d   1      56.580   0.057  32.031  0.00  0.00     0.267 A 
ATOM      3  C   UNL d   1      57.886   0.526  32.440  0.00  0.00     0.150 A 
ATOM      4  N   UNL d   1      57.589   0.682  33.203  0.00  0.00    -0.228 NA
ATOM      5  C   UNL d   1      56.293   0.214  32.792  0.00  0.00     0.074 A 
ATOM      6  C   UNL d   1      56.800   0.528  33.378  0.00  0.00     0.088 A 
ATOM      7  O   UNL d   1      56.086  -0.252  31.449  0.00  0.00    -0.267 OA
ATOM      8  C   UNL d   1      58.678   0.682  32.268  0.00  0.00     0.041 C 
ATOM      9  C   UNL d   1      55.503   0.059  32.961  0.00  0.00     0.006 A 
ATOM     10  C   UNL d   1      56.495   0.679  34.132  0.00  0.00     0.019 A 
ATOM     11  C   UNL d   1      55.213   0.215  33.719  0.00  0.00     0.000 A 
ATOM     12  C   UNL d   1      55.707   0.523  34.301  0.00  0.00     0.002 A 
ENDROOT
BRANCH   1  13
ATOM     13  C   UNL d   1      57.679   0.063  31.108  0.00  0.00     0.068 A 
ATOM     14  C   UNL d   1      57.846  -0.716  30.877  0.00  0.00     0.020 A 
ATOM     15  C   UNL d   1      58.142  -0.862  30.120  0.00  0.00     0.031 A 
ATOM     16  C   UNL d   1      58.273  -0.243  29.594  0.00  0.00     0.140 A 
ATOM     17  C   UNL d   1      58.105   0.530  29.830  0.00  0.00     0.031 A 
ATOM     18  F   UNL d   1      58.568  -0.396  28.842  0.00  0.00    -0.204 F 
ATOM     19  C   UNL d   1      57.809   0.680  30.584  0.00  0.00     0.020 A 
ENDBRANCH   1  13
TORSDOF 1
ENDMDL
MODEL 3
REMARK VINA RESULT:      -3.7      1.414      2.154
REMARK  1 active torsions:
REMARK  status: ('A' for Active; 'I' for Inactive)
REMARK    1  A    between atoms: C_7  and  N_1 
ROOT
ATOM      1  N   UNL d   1      56.262  -0.559  32.783  0.00  0.00    -0.259 N 
ATOM      2  C   UNL d   1      56.811  -0.089  32.361  0.00  0.00     0.267 A 
ATOM      3  C   UNL d   1      56.095  -1.333  32.542  0.00  0.00     0.150 A 
ATOM      4  N   UNL d   1      56.478  -1.648  31.872  0.00  0.00    -0.228 NA
ATOM      5  C   UNL d   1      57.188  -0.410  31.696  0.00  0.00     0.074 A 
ATOM      6  C   UNL d   1      57.019  -1.192  31.453  0.00  0.00     0.088 A 
ATOM      7  O   UNL d   1      56.972   0.680  32.606  0.00  0.00    -0.267 OA
ATOM      8  C   UNL d   1      55.553  -1.794  32.960  0.00  0.00     0.041 C 
ATOM      9  C   UNL d   1      57.728   0.051  31.281  0.00  0.00     0.006 A 
ATOM     10  C   UNL d   1      57.405  -1.496  30.787  0.00  0.00     0.019 A 
ATOM     11  C   UNL d   1      58.105  -0.266  30.618  0.00  0.00     0.000 A 
ATOM     12  C   UNL d   1      57.944  -1.036  30.372  0.00  0.00     0.002 A 
ENDROOT
BRANCH   1  13
ATOM     13  C   UNL d   1      55.883  -0.250  33.443  0.00  0.00     0.068 A 
ATOM     14  C   UNL d   1      55.111   0.048  33.379  0.00  0.00     0.020 A 
ATOM     15  C   UNL d   1      54.737   0.357  34.048  0.00  0.00     0.031 A 
ATOM     16  C   UNL d   1      55.122   0.373  34.775  0.00  0.00     0.140 A 
ATOM     17  C   UNL d   1      55.890   0.075  34.832  0.00  0.00     0.031 A 
ATOM     18  F   UNL d   1      54.744   0.682  35.436  0.00  0.00    -0.204 F 
ATOM     19  C   UNL d   1      56.267  -0.235  34.168  0.00  0.00     0.020 A 
ENDBRANCH   1  13
TORSDOF 1
ENDMDL
MODEL 4
REMARK VINA RESULT:      -3.3      2.021      3.948
REMARK  1 active torsions:
REMARK  status: ('A' for Active; 'I' for Inactive)
REMARK    1  A    between atoms: C_7  and  N_1 
ROOT
ATOM      1  N   UNL d   1      57.912  -0.533  30.668  0.00  0.00    -0.259 N 
ATOM      2  C   UNL d   1      57.691  -0.066  31.328  0.00  0.00     0.267 A 
ATOM      3  C   UNL d   1      57.584  -1.283  30.552  0.00  0.00     0.150 A 
ATOM      4  N   UNL d   1      57.027  -1.579  31.097  0.00  0.00    -0.228 NA
ATOM      5  C   UNL d   1      57.137  -0.368  31.865  0.00  0.00     0.074 A 
ATOM      6  C   UNL d   1      56.805  -1.127  31.748  0.00  0.00     0.088 A 
ATOM      7  O   UNL d   1      58.021   0.679  31.436  0.00  0.00    -0.267 OA
ATOM      8  C   UNL d   1      57.804  -1.740  29.902  0.00  0.00     0.041 C 
ATOM      9  C   UNL d   1      56.919   0.089  32.513  0.00  0.00     0.006 A 
ATOM     10  C   UNL d   1      56.254  -1.411  32.294  0.00  0.00     0.019 A 
ATOM     11  C   UNL d   1      56.367  -0.208  33.050  0.00  0.00     0.000 A 
ATOM     12  C   UNL d   1      56.036  -0.955  32.942  0.00  0.00     0.002 A 
ENDROOT
BRANCH   1  13
ATOM     13  C   UNL d   1      58.461  -0.243  30.130  0.00  0.00     0.068 A 
ATOM     14  C   UNL d   1      58.214   0.243  29.504  0.00  0.00     0.020 A 
ATOM     15  C   UNL d   1      58.771   0.531  28.967  0.00  0.00     0.031 A 
ATOM     16  C   UNL d   1      59.568   0.340  29.046  0.00  0.00     0.140 A 
ATOM     17  C   UNL d   1      59.807  -0.144  29.670  0.00  0.00     0.031 A 
ATOM     18  F   UNL d   1      60.117   0.630  28.507  0.00  0.00    -0.204 F 
ATOM     19  C   UNL d   1      59.254  -0.433  30.209  0.00  0.00     0.020 A 
ENDBRANCH   1  13
TORSDOF 1
ENDMDL
MODEL 5
REMARK VINA RESULT:      -2.7      2.836      4.292
REMARK  1 active torsions:
REMARK  status: ('A' for Active; 'I' for Inactive)
REMARK    1  A    between atoms: C_7  and  N_1 
ROOT
ATOM      1  N   UNL d   1      58.631  -1.315  29.674  0.00  0.00    -0.259 N 
ATOM      2  C   UNL d   1      58.135  -1.394  30.344  0.00  0.00     0.267 A 
ATOM      3  C   UNL d   1      58.741  -0.578  29.315  0.00  0.00     0.150 A 
ATOM      4  N   UNL d   1      58.353   0.093  29.622  0.00  0.00    -0.228 NA
ATOM      5  C   UNL d   1      57.753  -0.722  30.643  0.00  0.00     0.074 A 
ATOM      6  C   UNL d   1      57.864   0.022  30.279  0.00  0.00     0.088 A 
ATOM      7  O   UNL d   1      58.030  -2.131  30.697  0.00  0.00    -0.267 OA
ATOM      8  C   UNL d   1      59.230  -0.503  28.655  0.00  0.00     0.041 C 
ATOM      9  C   UNL d   1      57.265  -0.799  31.301  0.00  0.00     0.006 A 
ATOM     10  C   UNL d   1      57.475   0.682  30.592  0.00  0.00     0.019 A 
ATOM     11  C   UNL d   1      56.883  -0.131  31.601  0.00  0.00     0.000 A 
ATOM     12  C   UNL d   1      56.987   0.606  31.248  0.00  0.00     0.002 A 
ENDROOT
BRANCH   1  13
ATOM     13  C   UNL d   1      59.014  -1.975  29.370  0.00  0.00     0.068 A 
ATOM     14  C   UNL d   1      58.631  -2.460  28.817  0.00  0.00     0.020 A 
ATOM     15  C   UNL d   1      59.023  -3.123  28.515  0.00  0.00     0.031 A 
ATOM     16  C   UNL d   1      59.788  -3.305  28.759  0.00  0.00     0.140 A 
ATOM     17  C   UNL d   1      60.163  -2.818  29.310  0.00  0.00     0.031 A 
ATOM     18  F   UNL d   1      60.171  -3.965  28.455  0.00  0.00    -0.204 F 
ATOM     19  C   UNL d   1      59.776  -2.156  29.613  0.00  0.00     0.020 A 
ENDBRANCH   1  13
TORSDOF 1
ENDMDL
MODEL 6
REMARK VINA RESULT:      -2.4      1.283      1.803
REMARK  1 active torsions:
REMARK  status: ('A' for Active; 'I' for Inactive)
REMARK    1  A    between atoms: C_7  and  N_1 
ROOT
ATOM      1  N   UNL d   1      58.160  -0.308  30.677  0.00  0.00    -0.259 N 
ATOM      2  C   UNL d   1      58.096  -0.874  30.064  0.00  0.00     0.267 A 
ATOM      3  C   UNL d   1      58.857   0.124  30.782  0.00  0.00     0.150 A 
ATOM      4  N   UNL d   1      59.504  -0.006  30.273  0.00  0.00    -0.228 NA
ATOM      5  C   UNL d   1      58.743  -0.997  29.562  0.00  0.00     0.074 A 
ATOM      6  C   UNL d   1      59.448  -0.561  29.669  0.00  0.00     0.088 A 
ATOM      7  O   UNL d   1      57.398  -1.300  29.965  0.00  0.00    -0.267 OA
ATOM      8  C   UNL d   1      58.917   0.682  31.387  0.00  0.00     0.041 C 
ATOM      9  C   UNL d   1      58.682  -1.554  28.959  0.00  0.00     0.006 A 
ATOM     10  C   UNL d   1      60.085  -0.697  29.158  0.00  0.00     0.019 A 
ATOM     11  C   UNL d   1      59.326  -1.679  28.457  0.00  0.00     0.000 A 
ATOM     12  C   UNL d   1      60.024  -1.253  28.556  0.00  0.00     0.002 A 
ENDROOT
BRANCH   1  13
ATOM     13  C   UNL d   1      57.523  -0.178  31.180  0.00  0.00     0.068 A 
ATOM     14  C   UNL d   1      57.284  -0.770  31.710  0.00  0.00     0.020 A 
ATOM     15  C   UNL d   1      56.643  -0.632  32.213  0.00  0.00     0.031 A 
ATOM     16  C   UNL d   1      56.240   0.085  32.193  0.00  0.00     0.140 A 
ATOM     17  C   UNL d   1      56.483   0.670  31.663  0.00  0.00     0.031 A 
ATOM     18  F   UNL d   1      55.604   0.215  32.696  0.00  0.00    -0.204 F 
ATOM     19  C   UNL d   1      57.122   0.537  31.160  0.00  0.00     0.020 A 
ENDBRANCH   1  13
TORSDOF 1
ENDMDL
