MODEL 1
REMARK VINA RESULT:      -2.2      0.000      0.000
REMARK  11 active torsions:
REMARK  status: ('A' for Active; 'I' for Inactive)
REMARK    1  A    between atoms: C_2  and  N_1 
REMARK    2  A    between atoms: C_4  and  C_2 
REMARK    3  A    between atoms: C_5  and  C_2 
REMARK    4  A    between atoms: C_3  and  N_6 
REMARK    5  A    between atoms: N_15  and  C_3 
REMARK    6  A    between atoms: N_6  and  C_4 
REMARK    7  A    between atoms: C_16  and  N_7 
REMARK    8  A    between atoms: C_20  and  N_15 
REMARK    9  A    between atoms: C_19  and  C_16 
REMARK   10  A    between atoms: C_23  and  C_20 
REMARK   11  A    between atoms: C_22  and  C_23 
ROOT
ATOM      1  C   UNL d   1      31.948  17.217 -24.263  0.00  0.00     0.088 C 
ENDROOT
BRANCH   1   2
ATOM      2  N   UNL d   1      31.132  17.173 -24.380  0.00  0.00    -0.300 N 
ATOM      3  C   UNL d   1      30.826  16.650 -24.941  0.00  0.00     0.100 A 
ATOM      4  C   UNL d   1      30.010  16.605 -25.058  0.00  0.00     0.100 A 
ATOM      5  N   UNL d   1      29.500  17.078 -24.618  0.00  0.00    -0.300 N 
ATOM      6  C   UNL d   1      29.807  17.598 -24.059  0.00  0.00     0.100 A 
ATOM      7  C   UNL d   1      30.623  17.643 -23.943  0.00  0.00     0.100 A 
BRANCH   5   8
ATOM      8  C   UNL d   1      28.686  17.031 -24.737  0.00  0.00     0.080 C 
BRANCH   8   9
ATOM      9  C   UNL d   1      28.212  16.628 -24.187  0.00  0.00     0.018 A 
ATOM     10  C   UNL d   1      28.006  16.984 -23.486  0.00  0.00     0.002 A 
ATOM     11  C   UNL d   1      27.534  16.585 -22.937  0.00  0.00     0.000 A 
ATOM     12  C   UNL d   1      27.280  15.826 -23.112  0.00  0.00     0.000 A 
ATOM     13  C   UNL d   1      27.486  15.456 -23.825  0.00  0.00     0.000 A 
ATOM     14  C   UNL d   1      27.959  15.872 -24.363  0.00  0.00     0.002 A 
ENDBRANCH   8   9
ENDBRANCH   5   8
ENDBRANCH   1   2
BRANCH   1  15
ATOM     15  C   UNL d   1      32.323  17.944 -24.214  0.00  0.00     0.100 C 
ATOM     16  C   UNL d   1      32.584  18.310 -24.895  0.00  0.00     0.022 C 
BRANCH  15  17
ATOM     17  N   UNL d   1      32.431  18.290 -23.484  0.00  0.00    -0.216 NA
BRANCH  17  18
ATOM     18  C   UNL d   1      32.927  18.949 -23.407  0.00  0.00     0.221 C 
ATOM     19  S   UNL d   1      33.220  19.312 -24.085  0.00  0.00    -0.037 SA
BRANCH  18  20
ATOM     20  N   UNL d   1      33.121  19.228 -22.666  0.00  0.00    -0.216 NA
BRANCH  20  21
ATOM     21  C   UNL d   1      32.818  19.938 -22.391  0.00  0.00     0.102 C 
BRANCH  21  22
ATOM     22  C   UNL d   1      33.239  20.358 -21.813  0.00  0.00     0.021 C 
BRANCH  22  23
ATOM     23  C   UNL d   1      32.899  21.018 -21.475  0.00  0.00     0.002 A 
ATOM     24  C   UNL d   1      32.333  20.924 -20.881  0.00  0.00     0.000 A 
ATOM     25  C   UNL d   1      31.987  21.591 -20.538  0.00  0.00     0.000 A 
ATOM     26  C   UNL d   1      32.203  22.339 -20.782  0.00  0.00     0.000 A 
ATOM     27  C   UNL d   1      32.774  22.427 -21.380  0.00  0.00     0.000 A 
ATOM     28  C   UNL d   1      33.114  21.768 -21.718  0.00  0.00     0.000 A 
ENDBRANCH  22  23
ENDBRANCH  21  22
ENDBRANCH  20  21
ENDBRANCH  18  20
ENDBRANCH  17  18
ENDBRANCH  15  17
ENDBRANCH   1  15
BRANCH   1  29
ATOM     29  C   UNL d   1      32.388  16.522 -24.196  0.00  0.00     0.047 A 
ATOM     30  S   UNL d   1      32.741  16.107 -24.818  0.00  0.00    -0.085 SA
ATOM     31  C   UNL d   1      33.120  15.453 -24.502  0.00  0.00     0.035 A 
ATOM     32  C   UNL d   1      33.006  15.457 -23.685  0.00  0.00     0.007 A 
ATOM     33  C   UNL d   1      32.551  16.121 -23.497  0.00  0.00     0.009 A 
ENDBRANCH   1  29
TORSDOF 11
ENDMDL
