MODEL 1
REMARK VINA RESULT:      -5.0      0.000      0.000
REMARK  4 active torsions:
REMARK  status: ('A' for Active; 'I' for Inactive)
REMARK    1  A    between atoms: C_11  and  C_1 
REMARK    2  A    between atoms: C_6  and  C_17 
REMARK       I    between atoms: N_10  and  C_6 
REMARK    3  A    between atoms: C_17  and  N_8 
REMARK    4  A    between atoms: C_15  and  N_10 
ROOT
ATOM      1  N   UNL d   1     -40.191  15.100  18.763  0.00  0.00    -0.299 N 
ATOM      2  C   UNL d   1     -39.477  14.837  17.309  0.00  0.00     0.039 A 
ATOM      3  C   UNL d   1     -39.516  15.601  17.618  0.00  0.00     0.022 A 
ATOM      4  C   UNL d   1     -39.792  14.203  17.721  0.00  0.00     0.022 A 
ATOM      5  C   UNL d   1     -40.151  14.336  18.453  0.00  0.00     0.081 A 
ATOM      6  C   UNL d   1     -39.870  15.731  18.339  0.00  0.00     0.081 A 
ENDROOT
BRANCH   1   7
ATOM      7  C   UNL d   1     -40.551  15.232  19.496  0.00  0.00     0.144 C 
BRANCH   7   8
ATOM      8  C   UNL d   1     -40.085  15.304  20.177  0.00  0.00     0.297 C 
ATOM      9  N   UNL d   1     -40.304  14.903  20.845  0.00  0.00    -0.207 NA
ATOM     10  O   UNL d   1     -39.419  15.771  20.176  0.00  0.00    -0.264 OA
BRANCH   9  11
ATOM     11  C   UNL d   1     -39.848  14.966  21.532  0.00  0.00     0.087 A 
ATOM     12  C   UNL d   1     -39.533  14.295  21.866  0.00  0.00     0.045 A 
ATOM     13  C   UNL d   1     -39.077  14.359  22.552  0.00  0.00     0.121 A 
ATOM     14  O   UNL d   1     -38.690  13.799  23.015  0.00  0.00    -0.299 OA
ATOM     15  C   UNL d   1     -38.944  15.092  22.891  0.00  0.00     0.119 A 
ATOM     16  C   UNL d   1     -38.319  14.186  23.639  0.00  0.00     0.304 A 
ATOM     17  O   UNL d   1     -38.477  14.991  23.561  0.00  0.00    -0.300 OA
ATOM     18  C   UNL d   1     -39.271  15.768  22.540  0.00  0.00     0.028 A 
ATOM     19  C   UNL d   1     -39.723  15.701  21.860  0.00  0.00     0.021 A 
ENDBRANCH   9  11
ENDBRANCH   7   8
ENDBRANCH   1   7
BRANCH   2  20
ATOM     20  C   UNL d   1     -39.117  14.705  16.576  0.00  0.00     0.163 A 
ATOM     21  N   UNL d   1     -38.900  13.981  16.263  0.00  0.00    -0.225 NA
ATOM     22  C   UNL d   1     -38.562  14.107  15.524  0.00  0.00     0.101 A 
ATOM     23  C   UNL d   1     -38.249  13.587  14.966  0.00  0.00     0.021 A 
ATOM     24  C   UNL d   1     -38.569  14.921  15.379  0.00  0.00     0.101 A 
ATOM     25  C   UNL d   1     -37.942  13.879  14.263  0.00  0.00     0.002 A 
ATOM     26  C   UNL d   1     -37.947  14.693  14.113  0.00  0.00     0.002 A 
ATOM     27  C   UNL d   1     -38.259  15.212  14.668  0.00  0.00     0.021 A 
ATOM     28  N   UNL d   1     -38.912  15.293  16.029  0.00  0.00    -0.225 NA
ENDBRANCH   2  20
TORSDOF 4
ENDMDL
MODEL 2
REMARK VINA RESULT:      -4.7      6.521      8.812
REMARK  4 active torsions:
REMARK  status: ('A' for Active; 'I' for Inactive)
REMARK    1  A    between atoms: C_11  and  C_1 
REMARK    2  A    between atoms: C_6  and  C_17 
REMARK       I    between atoms: N_10  and  C_6 
REMARK    3  A    between atoms: C_17  and  N_8 
REMARK    4  A    between atoms: C_15  and  N_10 
ROOT
ATOM      1  N   UNL d   1     -45.559  12.826  22.348  0.00  0.00    -0.299 N 
ATOM      2  C   UNL d   1     -47.009  13.550  22.607  0.00  0.00     0.039 A 
ATOM      3  C   UNL d   1     -46.455  13.505  23.216  0.00  0.00     0.022 A 
ATOM      4  C   UNL d   1     -46.844  13.236  21.869  0.00  0.00     0.022 A 
ATOM      5  C   UNL d   1     -46.114  12.871  21.738  0.00  0.00     0.081 A 
ATOM      6  C   UNL d   1     -45.736  13.146  23.088  0.00  0.00     0.081 A 
ENDROOT
BRANCH   1   7
ATOM      7  C   UNL d   1     -44.829  12.461  22.217  0.00  0.00     0.144 C 
BRANCH   7   8
ATOM      8  C   UNL d   1     -44.199  12.898  21.902  0.00  0.00     0.297 C 
ATOM      9  N   UNL d   1     -43.528  12.509  21.673  0.00  0.00    -0.207 NA
ATOM     10  O   UNL d   1     -44.255  13.707  21.823  0.00  0.00    -0.264 OA
BRANCH   9  11
ATOM     11  C   UNL d   1     -42.893  12.934  21.357  0.00  0.00     0.087 A 
ATOM     12  C   UNL d   1     -42.234  13.068  21.814  0.00  0.00     0.045 A 
ATOM     13  C   UNL d   1     -41.600  13.492  21.498  0.00  0.00     0.121 A 
ATOM     14  O   UNL d   1     -40.871  13.716  21.810  0.00  0.00    -0.299 OA
ATOM     15  C   UNL d   1     -41.636  13.776  20.731  0.00  0.00     0.119 A 
ATOM     16  C   UNL d   1     -40.458  14.137  21.236  0.00  0.00     0.304 A 
ATOM     17  O   UNL d   1     -40.935  14.173  20.565  0.00  0.00    -0.300 OA
ATOM     18  C   UNL d   1     -42.314  13.632  20.276  0.00  0.00     0.028 A 
ATOM     19  C   UNL d   1     -42.940  13.211  20.592  0.00  0.00     0.021 A 
ENDBRANCH   9  11
ENDBRANCH   7   8
ENDBRANCH   1   7
BRANCH   2  20
ATOM     20  C   UNL d   1     -47.740  13.915  22.737  0.00  0.00     0.163 A 
ATOM     21  N   UNL d   1     -47.926  14.698  22.595  0.00  0.00    -0.225 NA
ATOM     22  C   UNL d   1     -48.711  14.822  22.804  0.00  0.00     0.101 A 
ATOM     23  C   UNL d   1     -49.188  15.494  22.779  0.00  0.00     0.021 A 
ATOM     24  C   UNL d   1     -49.016  14.104  23.079  0.00  0.00     0.101 A 
ATOM     25  C   UNL d   1     -49.969  15.450  23.028  0.00  0.00     0.002 A 
ATOM     26  C   UNL d   1     -50.278  14.734  23.304  0.00  0.00     0.002 A 
ATOM     27  C   UNL d   1     -49.804  14.063  23.330  0.00  0.00     0.021 A 
ATOM     28  N   UNL d   1     -48.416  13.541  23.038  0.00  0.00    -0.225 NA
ENDBRANCH   2  20
TORSDOF 4
ENDMDL
MODEL 3
REMARK VINA RESULT:      -4.4      4.874      7.305
REMARK  4 active torsions:
REMARK  status: ('A' for Active; 'I' for Inactive)
REMARK    1  A    between atoms: C_11  and  C_1 
REMARK    2  A    between atoms: C_6  and  C_17 
REMARK       I    between atoms: N_10  and  C_6 
REMARK    3  A    between atoms: C_17  and  N_8 
REMARK    4  A    between atoms: C_15  and  N_10 
ROOT
ATOM      1  N   UNL d   1     -43.190  12.751  21.411  0.00  0.00    -0.299 N 
ATOM      2  C   UNL d   1     -44.678  12.747  22.103  0.00  0.00     0.039 A 
ATOM      3  C   UNL d   1     -44.520  13.248  21.468  0.00  0.00     0.022 A 
ATOM      4  C   UNL d   1     -44.098  12.247  22.395  0.00  0.00     0.022 A 
ATOM      5  C   UNL d   1     -43.349  12.249  22.047  0.00  0.00     0.081 A 
ATOM      6  C   UNL d   1     -43.781  13.250  21.125  0.00  0.00     0.081 A 
ENDROOT
BRANCH   1   7
ATOM      7  C   UNL d   1     -42.440  12.753  21.062  0.00  0.00     0.144 C 
BRANCH   7   8
ATOM      8  C   UNL d   1     -41.887  13.331  21.277  0.00  0.00     0.297 C 
ATOM      9  N   UNL d   1     -41.506  13.744  20.695  0.00  0.00    -0.207 NA
ATOM     10  O   UNL d   1     -41.728  13.481  22.061  0.00  0.00    -0.264 OA
BRANCH   9  11
ATOM     11  C   UNL d   1     -40.951  14.323  20.897  0.00  0.00     0.087 A 
ATOM     12  C   UNL d   1     -40.176  14.108  21.020  0.00  0.00     0.045 A 
ATOM     13  C   UNL d   1     -39.622  14.687  21.221  0.00  0.00     0.121 A 
ATOM     14  O   UNL d   1     -38.814  14.651  21.379  0.00  0.00    -0.299 OA
ATOM     15  C   UNL d   1     -39.852  15.469  21.296  0.00  0.00     0.119 A 
ATOM     16  C   UNL d   1     -38.547  15.411  21.550  0.00  0.00     0.304 A 
ATOM     17  O   UNL d   1     -39.193  15.918  21.499  0.00  0.00    -0.300 OA
ATOM     18  C   UNL d   1     -40.645  15.674  21.168  0.00  0.00     0.028 A 
ATOM     19  C   UNL d   1     -41.191  15.098  20.968  0.00  0.00     0.021 A 
ENDBRANCH   9  11
ENDBRANCH   7   8
ENDBRANCH   1   7
BRANCH   2  20
ATOM     20  C   UNL d   1     -45.428  12.744  22.452  0.00  0.00     0.163 A 
ATOM     21  N   UNL d   1     -45.787  12.116  22.833  0.00  0.00    -0.225 NA
ATOM     22  C   UNL d   1     -46.528  12.358  23.094  0.00  0.00     0.101 A 
ATOM     23  C   UNL d   1     -47.123  11.961  23.505  0.00  0.00     0.021 A 
ATOM     24  C   UNL d   1     -46.629  13.148  22.872  0.00  0.00     0.101 A 
ATOM     25  C   UNL d   1     -47.819  12.354  23.695  0.00  0.00     0.002 A 
ATOM     26  C   UNL d   1     -47.924  13.144  23.475  0.00  0.00     0.002 A 
ATOM     27  C   UNL d   1     -47.332  13.541  23.065  0.00  0.00     0.021 A 
ATOM     28  N   UNL d   1     -45.949  13.389  22.475  0.00  0.00    -0.225 NA
ENDBRANCH   2  20
TORSDOF 4
ENDMDL
MODEL 4
REMARK VINA RESULT:      -3.9      7.537      9.105
REMARK  4 active torsions:
REMARK  status: ('A' for Active; 'I' for Inactive)
REMARK    1  A    between atoms: C_11  and  C_1 
REMARK    2  A    between atoms: C_6  and  C_17 
REMARK       I    between atoms: N_10  and  C_6 
REMARK    3  A    between atoms: C_17  and  N_8 
REMARK    4  A    between atoms: C_15  and  N_10 
ROOT
ATOM      1  N   UNL d   1     -46.240  12.519  22.929  0.00  0.00    -0.299 N 
ATOM      2  C   UNL d   1     -44.787  12.886  22.262  0.00  0.00     0.039 A 
ATOM      3  C   UNL d   1     -44.918  12.136  22.580  0.00  0.00     0.022 A 
ATOM      4  C   UNL d   1     -45.377  13.454  22.275  0.00  0.00     0.022 A 
ATOM      5  C   UNL d   1     -46.108  13.269  22.611  0.00  0.00     0.081 A 
ATOM      6  C   UNL d   1     -45.639  11.954  22.911  0.00  0.00     0.081 A 
ENDROOT
BRANCH   1   7
ATOM      7  C   UNL d   1     -46.973  12.334  23.265  0.00  0.00     0.144 C 
BRANCH   7   8
ATOM      8  C   UNL d   1     -47.668  12.444  22.828  0.00  0.00     0.297 C 
ATOM      9  N   UNL d   1     -48.326  12.730  23.202  0.00  0.00    -0.207 NA
ATOM     10  O   UNL d   1     -47.689  12.268  22.033  0.00  0.00    -0.264 OA
BRANCH   9  11
ATOM     11  C   UNL d   1     -49.025  12.844  22.776  0.00  0.00     0.087 A 
ATOM     12  C   UNL d   1     -49.246  13.598  22.564  0.00  0.00     0.045 A 
ATOM     13  C   UNL d   1     -49.944  13.712  22.139  0.00  0.00     0.121 A 
ATOM     14  O   UNL d   1     -50.313  14.389  21.848  0.00  0.00    -0.299 OA
ATOM     15  C   UNL d   1     -50.410  13.071  21.933  0.00  0.00     0.119 A 
ATOM     16  C   UNL d   1     -51.005  14.164  21.463  0.00  0.00     0.304 A 
ATOM     17  O   UNL d   1     -51.064  13.345  21.516  0.00  0.00    -0.300 OA
ATOM     18  C   UNL d   1     -50.174  12.308  22.155  0.00  0.00     0.028 A 
ATOM     19  C   UNL d   1     -49.480  12.199  22.577  0.00  0.00     0.021 A 
ENDBRANCH   9  11
ENDBRANCH   7   8
ENDBRANCH   1   7
BRANCH   2  20
ATOM     20  C   UNL d   1     -44.054  13.071  21.926  0.00  0.00     0.163 A 
ATOM     21  N   UNL d   1     -43.806  13.807  21.670  0.00  0.00    -0.225 NA
ATOM     22  C   UNL d   1     -43.043  13.738  21.375  0.00  0.00     0.101 A 
ATOM     23  C   UNL d   1     -42.527  14.293  21.048  0.00  0.00     0.021 A 
ATOM     24  C   UNL d   1     -42.814  12.947  21.449  0.00  0.00     0.101 A 
ATOM     25  C   UNL d   1     -41.781  14.057  20.796  0.00  0.00     0.002 A 
ATOM     26  C   UNL d   1     -41.549  13.266  20.868  0.00  0.00     0.002 A 
ATOM     27  C   UNL d   1     -42.061  12.713  21.193  0.00  0.00     0.021 A 
ATOM     28  N   UNL d   1     -43.439  12.533  21.790  0.00  0.00    -0.225 NA
ENDBRANCH   2  20
TORSDOF 4
ENDMDL
MODEL 5
REMARK VINA RESULT:      -3.8      5.525      6.736
REMARK  4 active torsions:
REMARK  status: ('A' for Active; 'I' for Inactive)
REMARK    1  A    between atoms: C_11  and  C_1 
REMARK    2  A    between atoms: C_6  and  C_17 
REMARK       I    between atoms: N_10  and  C_6 
REMARK    3  A    between atoms: C_17  and  N_8 
REMARK    4  A    between atoms: C_15  and  N_10 
ROOT
ATOM      1  N   UNL d   1     -43.819  12.707  21.802  0.00  0.00    -0.299 N 
ATOM      2  C   UNL d   1     -42.491  13.400  21.132  0.00  0.00     0.039 A 
ATOM      3  C   UNL d   1     -42.436  12.655  21.481  0.00  0.00     0.022 A 
ATOM      4  C   UNL d   1     -43.205  13.802  21.115  0.00  0.00     0.022 A 
ATOM      5  C   UNL d   1     -43.873  13.452  21.453  0.00  0.00     0.081 A 
ATOM      6  C   UNL d   1     -43.094  12.311  21.813  0.00  0.00     0.081 A 
ENDROOT
BRANCH   1   7
ATOM      7  C   UNL d   1     -44.488  12.357  22.140  0.00  0.00     0.144 C 
BRANCH   7   8
ATOM      8  C   UNL d   1     -45.210  12.763  22.142  0.00  0.00     0.297 C 
ATOM      9  N   UNL d   1     -45.596  12.872  22.844  0.00  0.00    -0.207 NA
ATOM     10  O   UNL d   1     -45.526  13.048  21.448  0.00  0.00    -0.264 OA
BRANCH   9  11
ATOM     11  C   UNL d   1     -46.318  13.276  22.859  0.00  0.00     0.087 A 
ATOM     12  C   UNL d   1     -47.012  12.855  22.824  0.00  0.00     0.045 A 
ATOM     13  C   UNL d   1     -47.733  13.259  22.838  0.00  0.00     0.121 A 
ATOM     14  O   UNL d   1     -48.515  13.000  22.812  0.00  0.00    -0.299 OA
ATOM     15  C   UNL d   1     -47.746  14.075  22.887  0.00  0.00     0.119 A 
ATOM     16  C   UNL d   1     -49.009  13.657  22.845  0.00  0.00     0.304 A 
ATOM     17  O   UNL d   1     -48.530  14.326  22.892  0.00  0.00    -0.300 OA
ATOM     18  C   UNL d   1     -47.030  14.493  22.922  0.00  0.00     0.028 A 
ATOM     19  C   UNL d   1     -46.318  14.089  22.907  0.00  0.00     0.021 A 
ENDBRANCH   9  11
ENDBRANCH   7   8
ENDBRANCH   1   7
BRANCH   2  20
ATOM     20  C   UNL d   1     -41.822  13.750  20.794  0.00  0.00     0.163 A 
ATOM     21  N   UNL d   1     -41.604  13.726  20.007  0.00  0.00    -0.225 NA
ATOM     22  C   UNL d   1     -40.903  14.146  19.916  0.00  0.00     0.101 A 
ATOM     23  C   UNL d   1     -40.437  14.303  19.255  0.00  0.00     0.021 A 
ATOM     24  C   UNL d   1     -40.684  14.434  20.660  0.00  0.00     0.101 A 
ATOM     25  C   UNL d   1     -39.751  14.748  19.335  0.00  0.00     0.002 A 
ATOM     26  C   UNL d   1     -39.528  15.038  20.077  0.00  0.00     0.002 A 
ATOM     27  C   UNL d   1     -39.992  14.882  20.737  0.00  0.00     0.021 A 
ATOM     28  N   UNL d   1     -41.251  14.190  21.205  0.00  0.00    -0.225 NA
ENDBRANCH   2  20
TORSDOF 4
ENDMDL
MODEL 6
REMARK VINA RESULT:      -3.6      4.393      7.236
REMARK  4 active torsions:
REMARK  status: ('A' for Active; 'I' for Inactive)
REMARK    1  A    between atoms: C_11  and  C_1 
REMARK    2  A    between atoms: C_6  and  C_17 
REMARK       I    between atoms: N_10  and  C_6 
REMARK    3  A    between atoms: C_17  and  N_8 
REMARK    4  A    between atoms: C_15  and  N_10 
ROOT
ATOM      1  N   UNL d   1     -42.464  13.233  21.293  0.00  0.00    -0.299 N 
ATOM      2  C   UNL d   1     -44.007  13.060  21.823  0.00  0.00     0.039 A 
ATOM      3  C   UNL d   1     -43.545  12.394  21.672  0.00  0.00     0.022 A 
ATOM      4  C   UNL d   1     -43.703  13.813  21.711  0.00  0.00     0.022 A 
ATOM      5  C   UNL d   1     -42.926  13.899  21.444  0.00  0.00     0.081 A 
ATOM      6  C   UNL d   1     -42.780  12.479  21.409  0.00  0.00     0.081 A 
ENDROOT
BRANCH   1   7
ATOM      7  C   UNL d   1     -41.686  13.320  21.026  0.00  0.00     0.144 C 
BRANCH   7   8
ATOM      8  C   UNL d   1     -41.536  13.714  20.313  0.00  0.00     0.297 C 
ATOM      9  N   UNL d   1     -40.865  14.161  20.245  0.00  0.00    -0.207 NA
ATOM     10  O   UNL d   1     -42.055  13.652  19.689  0.00  0.00    -0.264 OA
BRANCH   9  11
ATOM     11  C   UNL d   1     -40.704  14.559  19.539  0.00  0.00     0.087 A 
ATOM     12  C   UNL d   1     -40.407  14.144  18.905  0.00  0.00     0.045 A 
ATOM     13  C   UNL d   1     -40.246  14.542  18.200  0.00  0.00     0.121 A 
ATOM     14  O   UNL d   1     -39.950  14.288  17.474  0.00  0.00    -0.299 OA
ATOM     15  C   UNL d   1     -40.385  15.346  18.139  0.00  0.00     0.119 A 
ATOM     16  C   UNL d   1     -39.906  14.935  16.968  0.00  0.00     0.304 A 
ATOM     17  O   UNL d   1     -40.177  15.593  17.382  0.00  0.00    -0.300 OA
ATOM     18  C   UNL d   1     -40.688  15.757  18.793  0.00  0.00     0.028 A 
ATOM     19  C   UNL d   1     -40.846  15.359  19.491  0.00  0.00     0.021 A 
ENDBRANCH   9  11
ENDBRANCH   7   8
ENDBRANCH   1   7
BRANCH   2  20
ATOM     20  C   UNL d   1     -44.785  12.974  22.090  0.00  0.00     0.163 A 
ATOM     21  N   UNL d   1     -45.443  13.374  21.816  0.00  0.00    -0.225 NA
ATOM     22  C   UNL d   1     -46.100  13.116  22.236  0.00  0.00     0.101 A 
ATOM     23  C   UNL d   1     -46.897  13.326  22.195  0.00  0.00     0.021 A 
ATOM     24  C   UNL d   1     -45.845  12.547  22.780  0.00  0.00     0.101 A 
ATOM     25  C   UNL d   1     -47.439  12.967  22.697  0.00  0.00     0.002 A 
ATOM     26  C   UNL d   1     -47.188  12.397  23.241  0.00  0.00     0.002 A 
ATOM     27  C   UNL d   1     -46.395  12.188  23.284  0.00  0.00     0.021 A 
ATOM     28  N   UNL d   1     -45.031  12.458  22.691  0.00  0.00    -0.225 NA
ENDBRANCH   2  20
TORSDOF 4
ENDMDL
