MODEL 1
REMARK VINA RESULT:      29.8      0.000      0.000
REMARK  5 active torsions:
REMARK  status: ('A' for Active; 'I' for Inactive)
REMARK       I    between atoms: C_3  and  N_1 
REMARK    1  A    between atoms: C_8  and  C_3 
REMARK    2  A    between atoms: S_4  and  N_9 
REMARK    3  A    between atoms: C_16  and  C_5 
REMARK    4  A    between atoms: C_10  and  C_6 
REMARK    5  A    between atoms: N_9  and  C_21 
ROOT
ATOM      1  N   UNL d   1      45.931 -17.896  43.203  0.00  0.00    -0.193 N 
ATOM      2  N   UNL d   1      45.863 -17.074  43.129  0.00  0.00    -0.163 NA
ATOM      3  C   UNL d   1      46.037 -18.427  42.580  0.00  0.00     0.303 C 
ATOM      4  C   UNL d   1      45.874 -18.081  44.009  0.00  0.00     0.088 A 
ATOM      5  C   UNL d   1      45.765 -16.755  43.883  0.00  0.00     0.103 A 
ATOM      6  C   UNL d   1      45.772 -17.379  44.422  0.00  0.00     0.040 A 
ATOM      7  O   UNL d   1      46.096 -19.236  42.746  0.00  0.00    -0.263 OA
ENDROOT
BRANCH   5   8
ATOM      8  C   UNL d   1      45.675 -15.958  44.064  0.00  0.00     0.019 A 
ATOM      9  C   UNL d   1      46.307 -15.432  43.941  0.00  0.00     0.003 A 
ATOM     10  C   UNL d   1      46.216 -14.640  44.121  0.00  0.00     0.020 A 
ATOM     11  C   UNL d   1      45.502 -14.358  44.425  0.00  0.00     0.093 A 
ATOM     12  C   UNL d   1      44.874 -14.884  44.546  0.00  0.00     0.020 A 
ATOM     13  C   UNL d   1      44.964 -15.687  44.364  0.00  0.00     0.003 A 
BRANCH  11  14
ATOM     14  N   UNL d   1      45.404 -13.561  44.608  0.00  0.00    -0.162 NA
BRANCH  14  15
ATOM     15  S   UNL d   1      45.387 -12.992  44.021  0.00  0.00     0.266 S 
ATOM     16  O   UNL d   1      45.635 -12.319  43.611  0.00  0.00    -0.203 OA
ATOM     17  O   UNL d   1      46.043 -12.714  44.441  0.00  0.00    -0.203 OA
ATOM     18  C   UNL d   1      44.738 -13.248  43.586  0.00  0.00     0.165 C 
ENDBRANCH  14  15
ENDBRANCH  11  14
ENDBRANCH   5   8
BRANCH   4  19
ATOM     19  C   UNL d   1      45.914 -18.833  44.328  0.00  0.00     0.018 A 
ATOM     20  C   UNL d   1      46.647 -19.108  44.654  0.00  0.00     0.002 A 
ATOM     21  C   UNL d   1      46.617 -19.865  44.954  0.00  0.00     0.000 A 
ATOM     22  C   UNL d   1      45.933 -20.330  44.944  0.00  0.00     0.000 A 
ATOM     23  C   UNL d   1      45.253 -20.070  44.639  0.00  0.00     0.000 A 
ATOM     24  C   UNL d   1      45.224 -19.305  44.319  0.00  0.00     0.002 A 
ENDBRANCH   4  19
BRANCH   3  25
ATOM     25  C   UNL d   1      46.082 -18.156  41.816  0.00  0.00     0.158 A 
ATOM     26  O   UNL d   1      45.549 -17.617  41.451  0.00  0.00    -0.300 OA
ATOM     27  C   UNL d   1      45.808 -17.500  40.676  0.00  0.00     0.123 A 
ATOM     28  C   UNL d   1      46.483 -17.953  40.559  0.00  0.00     0.029 A 
ATOM     29  C   UNL d   1      46.639 -18.351  41.269  0.00  0.00     0.032 A 
ENDBRANCH   3  25
TORSDOF 5
ENDMDL
