MODEL 1
REMARK VINA RESULT:       1.2      0.000      0.000
REMARK  2 active torsions:
REMARK  status: ('A' for Active; 'I' for Inactive)
REMARK    1  A    between atoms: C_6  and  C_3 
REMARK    2  A    between atoms: C_9  and  C_6 
ROOT
ATOM      1  N   UNL d   1      44.194 -14.941  36.972  0.00  0.00    -0.225 NA
ATOM      2  N   UNL d   1      44.817 -15.938  36.330  0.00  0.00    -0.225 NA
ATOM      3  C   UNL d   1      44.083 -15.635  36.543  0.00  0.00     0.163 A 
ATOM      4  C   UNL d   1      44.986 -14.814  37.025  0.00  0.00     0.101 A 
ATOM      5  C   UNL d   1      45.377 -15.440  36.623  0.00  0.00     0.101 A 
ATOM      6  C   UNL d   1      45.423 -14.226  37.378  0.00  0.00     0.021 A 
ATOM      7  C   UNL d   1      46.189 -15.452  36.589  0.00  0.00     0.021 A 
ATOM      8  C   UNL d   1      46.256 -14.229  37.350  0.00  0.00     0.002 A 
ATOM      9  C   UNL d   1      46.647 -14.855  36.947  0.00  0.00     0.002 A 
ENDROOT
BRANCH   3  10
ATOM     10  C   UNL d   1      43.353 -15.971  36.356  0.00  0.00     0.039 C 
BRANCH  10  11
ATOM     11  C   UNL d   1      42.671 -15.515  36.349  0.00  0.00     0.003 C 
ATOM     12  C   UNL d   1      41.926 -15.871  36.337  0.00  0.00     0.000 C 
ENDBRANCH  10  11
ENDBRANCH   3  10
TORSDOF 2
ENDMDL
MODEL 2
REMARK VINA RESULT:       2.3      6.808      7.664
REMARK  2 active torsions:
REMARK  status: ('A' for Active; 'I' for Inactive)
REMARK    1  A    between atoms: C_6  and  C_3 
REMARK    2  A    between atoms: C_9  and  C_6 
ROOT
ATOM      1  N   UNL d   1      44.597 -13.311  43.865  0.00  0.00    -0.225 NA
ATOM      2  N   UNL d   1      45.922 -13.118  43.859  0.00  0.00    -0.225 NA
ATOM      3  C   UNL d   1      45.199 -12.804  43.625  0.00  0.00     0.163 A 
ATOM      4  C   UNL d   1      44.940 -13.932  44.244  0.00  0.00     0.101 A 
ATOM      5  C   UNL d   1      45.772 -13.811  44.239  0.00  0.00     0.101 A 
ATOM      6  C   UNL d   1      44.631 -14.597  44.596  0.00  0.00     0.021 A 
ATOM      7  C   UNL d   1      46.260 -14.360  44.587  0.00  0.00     0.021 A 
ATOM      8  C   UNL d   1      45.123 -15.165  44.955  0.00  0.00     0.002 A 
ATOM      9  C   UNL d   1      45.955 -15.044  44.951  0.00  0.00     0.002 A 
ENDROOT
BRANCH   3  10
ATOM     10  C   UNL d   1      45.093 -12.095  43.216  0.00  0.00     0.039 C 
BRANCH  10  11
ATOM     11  C   UNL d   1      44.695 -12.080  42.499  0.00  0.00     0.003 C 
ATOM     12  C   UNL d   1      45.110 -12.089  41.786  0.00  0.00     0.000 C 
ENDBRANCH  10  11
ENDBRANCH   3  10
TORSDOF 2
ENDMDL
MODEL 3
REMARK VINA RESULT:       2.7      7.474      7.831
REMARK  2 active torsions:
REMARK  status: ('A' for Active; 'I' for Inactive)
REMARK    1  A    between atoms: C_6  and  C_3 
REMARK    2  A    between atoms: C_9  and  C_6 
ROOT
ATOM      1  N   UNL d   1      46.645 -18.570  42.933  0.00  0.00    -0.225 NA
ATOM      2  N   UNL d   1      46.646 -19.904  43.055  0.00  0.00    -0.225 NA
ATOM      3  C   UNL d   1      46.645 -19.194  43.470  0.00  0.00     0.163 A 
ATOM      4  C   UNL d   1      46.646 -18.886  42.194  0.00  0.00     0.101 A 
ATOM      5  C   UNL d   1      46.646 -19.724  42.270  0.00  0.00     0.101 A 
ATOM      6  C   UNL d   1      46.646 -18.549  41.454  0.00  0.00     0.021 A 
ATOM      7  C   UNL d   1      46.646 -20.188  41.603  0.00  0.00     0.021 A 
ATOM      8  C   UNL d   1      46.647 -19.016  40.765  0.00  0.00     0.002 A 
ATOM      9  C   UNL d   1      46.647 -19.854  40.841  0.00  0.00     0.002 A 
ENDROOT
BRANCH   3  10
ATOM     10  C   UNL d   1      46.645 -19.119  44.292  0.00  0.00     0.039 C 
BRANCH  10  11
ATOM     11  C   UNL d   1      46.056 -19.469  44.744  0.00  0.00     0.003 C 
ATOM     12  C   UNL d   1      46.103 -20.266  44.953  0.00  0.00     0.000 C 
ENDBRANCH  10  11
ENDBRANCH   3  10
TORSDOF 2
ENDMDL
