MODEL 1
REMARK VINA RESULT:      -9.1      0.000      0.000
REMARK  2 active torsions:
REMARK  status: ('A' for Active; 'I' for Inactive)
REMARK    1  A    between atoms: S_4  and  C_1 
REMARK    2  A    between atoms: C_9  and  S_4 
ROOT
ATOM      1  C   UNL d   1      53.817  32.899  53.716  0.00  0.00     0.107 A 
ATOM      2  C   UNL d   1      53.307  33.257  54.268  0.00  0.00     0.201 A 
ATOM      3  C   UNL d   1      54.612  32.939  53.770  0.00  0.00     0.201 A 
ATOM      4  C   UNL d   1      54.488  33.717  54.961  0.00  0.00     0.043 A 
ATOM      5  C   UNL d   1      53.648  33.672  54.900  0.00  0.00     0.020 A 
ATOM      6  C   UNL d   1      54.961  33.347  54.391  0.00  0.00     0.020 A 
ATOM      7  O   UNL d   1      55.058  32.569  53.199  0.00  0.00    -0.286 OA
ATOM      8  O   UNL d   1      52.489  33.223  54.222  0.00  0.00    -0.286 OA
ATOM      9  C   UNL d   1      55.215  33.908  55.246  0.00  0.00     0.009 C 
ATOM     10  C   UNL d   1      54.273  34.148  55.623  0.00  0.00     0.009 C 
ENDROOT
BRANCH   1  11
ATOM     11  S   UNL d   1      53.478  32.469  53.060  0.00  0.00    -0.081 SA
BRANCH  11  12
ATOM     12  C   UNL d   1      53.282  31.657  53.171  0.00  0.00     0.030 A 
ATOM     13  C   UNL d   1      53.837  31.112  53.453  0.00  0.00     0.007 A 
ATOM     14  C   UNL d   1      53.613  30.325  53.550  0.00  0.00     0.007 A 
ATOM     15  C   UNL d   1      52.850  30.079  53.372  0.00  0.00     0.035 A 
ATOM     16  C   UNL d   1      52.305  30.631  53.093  0.00  0.00     0.007 A 
ATOM     17 BR   UNL d   1      52.638  29.278  53.476  0.00  0.00    -0.049 Br
ATOM     18  C   UNL d   1      52.512  31.421  52.989  0.00  0.00     0.007 A 
ENDBRANCH  11  12
ENDBRANCH   1  11
TORSDOF 2
ENDMDL
MODEL 2
REMARK VINA RESULT:      -9.0      2.241      2.726
REMARK  2 active torsions:
REMARK  status: ('A' for Active; 'I' for Inactive)
REMARK    1  A    between atoms: S_4  and  C_1 
REMARK    2  A    between atoms: C_9  and  S_4 
ROOT
ATOM      1  C   UNL d   1      53.294  33.153  53.514  0.00  0.00     0.107 A 
ATOM      2  C   UNL d   1      53.644  33.869  53.757  0.00  0.00     0.201 A 
ATOM      3  C   UNL d   1      53.365  32.474  53.926  0.00  0.00     0.201 A 
ATOM      4  C   UNL d   1      54.162  33.151  54.898  0.00  0.00     0.043 A 
ATOM      5  C   UNL d   1      54.084  33.867  54.459  0.00  0.00     0.020 A 
ATOM      6  C   UNL d   1      53.799  32.460  54.624  0.00  0.00     0.020 A 
ATOM      7  O   UNL d   1      53.000  31.807  53.638  0.00  0.00    -0.286 OA
ATOM      8  O   UNL d   1      53.578  34.573  53.341  0.00  0.00    -0.286 OA
ATOM      9  C   UNL d   1      54.386  32.642  55.479  0.00  0.00     0.009 C 
ATOM     10  C   UNL d   1      54.599  33.658  55.371  0.00  0.00     0.009 C 
ENDROOT
BRANCH   1  11
ATOM     11  S   UNL d   1      52.837  33.142  52.792  0.00  0.00    -0.081 SA
BRANCH  11  12
ATOM     12  C   UNL d   1      52.059  33.466  52.803  0.00  0.00     0.030 A 
ATOM     13  C   UNL d   1      51.470  33.157  53.294  0.00  0.00     0.007 A 
ATOM     14  C   UNL d   1      50.718  33.497  53.281  0.00  0.00     0.007 A 
ATOM     15  C   UNL d   1      50.553  34.134  52.790  0.00  0.00     0.035 A 
ATOM     16  C   UNL d   1      51.149  34.434  52.305  0.00  0.00     0.007 A 
ATOM     17 BR   UNL d   1      49.787  34.468  52.788  0.00  0.00    -0.049 Br
ATOM     18  C   UNL d   1      51.904  34.106  52.306  0.00  0.00     0.007 A 
ENDBRANCH  11  12
ENDBRANCH   1  11
TORSDOF 2
ENDMDL
MODEL 3
REMARK VINA RESULT:      -8.9      1.786      3.404
REMARK  2 active torsions:
REMARK  status: ('A' for Active; 'I' for Inactive)
REMARK    1  A    between atoms: S_4  and  C_1 
REMARK    2  A    between atoms: C_9  and  S_4 
ROOT
ATOM      1  C   UNL d   1      53.494  32.235  53.124  0.00  0.00     0.107 A 
ATOM      2  C   UNL d   1      52.762  31.976  52.824  0.00  0.00     0.201 A 
ATOM      3  C   UNL d   1      53.976  31.767  53.555  0.00  0.00     0.201 A 
ATOM      4  C   UNL d   1      53.035  30.699  53.439  0.00  0.00     0.043 A 
ATOM      5  C   UNL d   1      52.529  31.197  52.984  0.00  0.00     0.020 A 
ATOM      6  C   UNL d   1      53.756  30.993  53.720  0.00  0.00     0.020 A 
ATOM      7  O   UNL d   1      54.679  32.077  53.820  0.00  0.00    -0.286 OA
ATOM      8  O   UNL d   1      52.258  32.448  52.379  0.00  0.00    -0.286 OA
ATOM      9  C   UNL d   1      53.306  30.046  53.824  0.00  0.00     0.009 C 
ATOM     10  C   UNL d   1      52.417  30.181  53.295  0.00  0.00     0.009 C 
ENDROOT
BRANCH   1  11
ATOM     11  S   UNL d   1      53.745  33.036  52.965  0.00  0.00    -0.081 SA
BRANCH  11  12
ATOM     12  C   UNL d   1      53.485  33.648  53.483  0.00  0.00     0.030 A 
ATOM     13  C   UNL d   1      53.738  33.684  54.270  0.00  0.00     0.007 A 
ATOM     14  C   UNL d   1      53.465  34.296  54.751  0.00  0.00     0.007 A 
ATOM     15  C   UNL d   1      52.950  34.864  54.458  0.00  0.00     0.035 A 
ATOM     16  C   UNL d   1      52.705  34.818  53.672  0.00  0.00     0.007 A 
ATOM     17 BR   UNL d   1      52.683  35.478  54.958  0.00  0.00    -0.049 Br
ATOM     18  C   UNL d   1      52.967  34.213  53.178  0.00  0.00     0.007 A 
ENDBRANCH  11  12
ENDBRANCH   1  11
TORSDOF 2
ENDMDL
MODEL 4
REMARK VINA RESULT:      -8.3      2.298      3.518
REMARK  2 active torsions:
REMARK  status: ('A' for Active; 'I' for Inactive)
REMARK    1  A    between atoms: S_4  and  C_1 
REMARK    2  A    between atoms: C_9  and  S_4 
ROOT
ATOM      1  C   UNL d   1      52.356  33.584  52.956  0.00  0.00     0.107 A 
ATOM      2  C   UNL d   1      51.815  32.972  53.118  0.00  0.00     0.201 A 
ATOM      3  C   UNL d   1      52.130  34.331  52.791  0.00  0.00     0.201 A 
ATOM      4  C   UNL d   1      50.763  33.944  52.932  0.00  0.00     0.043 A 
ATOM      5  C   UNL d   1      51.006  33.156  53.105  0.00  0.00     0.020 A 
ATOM      6  C   UNL d   1      51.332  34.525  52.776  0.00  0.00     0.020 A 
ATOM      7  O   UNL d   1      52.706  34.885  52.641  0.00  0.00    -0.286 OA
ATOM      8  O   UNL d   1      52.035  32.200  53.288  0.00  0.00    -0.286 OA
ATOM      9  C   UNL d   1      50.280  34.575  52.804  0.00  0.00     0.009 C 
ATOM     10  C   UNL d   1      50.032  33.590  53.041  0.00  0.00     0.009 C 
ENDROOT
BRANCH   1  11
ATOM     11  S   UNL d   1      53.192  33.408  52.965  0.00  0.00    -0.081 SA
BRANCH  11  12
ATOM     12  C   UNL d   1      53.602  33.443  53.701  0.00  0.00     0.030 A 
ATOM     13  C   UNL d   1      53.635  34.141  54.143  0.00  0.00     0.007 A 
ATOM     14  C   UNL d   1      54.044  34.143  54.859  0.00  0.00     0.007 A 
ATOM     15  C   UNL d   1      54.415  33.465  55.134  0.00  0.00     0.035 A 
ATOM     16  C   UNL d   1      54.375  32.774  54.685  0.00  0.00     0.007 A 
ATOM     17 BR   UNL d   1      54.826  33.482  55.861  0.00  0.00    -0.049 Br
ATOM     18  C   UNL d   1      53.971  32.755  53.968  0.00  0.00     0.007 A 
ENDBRANCH  11  12
ENDBRANCH   1  11
TORSDOF 2
ENDMDL
