MODEL 1
REMARK VINA RESULT:       0.2      0.000      0.000
REMARK  6 active torsions:
REMARK  status: ('A' for Active; 'I' for Inactive)
REMARK    1  A    between atoms: C_15  and  C_2 
REMARK    2  A    between atoms: C_19  and  C_3 
REMARK    3  A    between atoms: C_4  and  C_16 
REMARK       I    between atoms: N_7  and  C_4 
REMARK    4  A    between atoms: C_14  and  N_7 
REMARK    5  A    between atoms: C_8  and  C_9 
REMARK    6  A    between atoms: C_16  and  C_15 
ROOT
ATOM      1  C   UNL d   1     -41.365-123.355 -52.708  0.00  0.00     0.279 C 
ATOM      2  N   UNL d   1     -41.441-123.694 -53.455  0.00  0.00    -0.208 NA
ATOM      3  O   UNL d   1     -41.123-123.817 -52.066  0.00  0.00    -0.265 OA
ENDROOT
BRANCH   1   4
ATOM      4  C   UNL d   1     -41.532-122.553 -52.598  0.00  0.00     0.065 C 
BRANCH   4   5
ATOM      5  C   UNL d   1     -41.187-122.140 -51.967  0.00  0.00     0.030 C 
BRANCH   5   6
ATOM      6  C   UNL d   1     -41.579-122.084 -51.242  0.00  0.00     0.100 A 
ATOM      7  O   UNL d   1     -42.084-122.651 -50.928  0.00  0.00    -0.307 OA
ATOM      8  C   UNL d   1     -42.350-122.370 -50.201  0.00  0.00     0.100 A 
ATOM      9  C   UNL d   1     -42.002-121.619 -50.071  0.00  0.00     0.027 A 
ATOM     10  C   UNL d   1     -41.528-121.453 -50.721  0.00  0.00     0.027 A 
BRANCH   8  11
ATOM     11  C   UNL d   1     -42.865-122.752 -49.689  0.00  0.00     0.025 C 
ATOM     12  C   UNL d   1     -43.585-122.409 -49.483  0.00  0.00     0.002 C 
ENDBRANCH   8  11
ENDBRANCH   5   6
ENDBRANCH   4   5
ENDBRANCH   1   4
BRANCH   2  13
ATOM     13  C   UNL d   1     -41.686-123.223 -54.097  0.00  0.00     0.085 A 
ATOM     14  C   UNL d   1     -42.486-123.057 -54.197  0.00  0.00     0.019 A 
ATOM     15  C   UNL d   1     -42.726-122.588 -54.837  0.00  0.00     0.005 A 
ATOM     16  C   UNL d   1     -42.170-122.290 -55.370  0.00  0.00     0.039 A 
ATOM     17  C   UNL d   1     -41.359-122.468 -55.253  0.00  0.00     0.005 A 
ATOM     18  C   UNL d   1     -41.124-122.931 -54.620  0.00  0.00     0.019 A 
BRANCH  16  19
ATOM     19  C   UNL d   1     -42.405-121.823 -56.007  0.00  0.00     0.196 C 
ATOM     20  O   UNL d   1     -43.197-121.809 -56.241  0.00  0.00    -0.287 OA
ATOM     21  C   UNL d   1     -41.847-121.368 -56.412  0.00  0.00     0.045 C 
ENDBRANCH  16  19
ENDBRANCH   2  13
TORSDOF 6
ENDMDL
MODEL 2
REMARK VINA RESULT:       1.3      1.933      5.454
REMARK  6 active torsions:
REMARK  status: ('A' for Active; 'I' for Inactive)
REMARK    1  A    between atoms: C_15  and  C_2 
REMARK    2  A    between atoms: C_19  and  C_3 
REMARK    3  A    between atoms: C_4  and  C_16 
REMARK       I    between atoms: N_7  and  C_4 
REMARK    4  A    between atoms: C_14  and  N_7 
REMARK    5  A    between atoms: C_8  and  C_9 
REMARK    6  A    between atoms: C_16  and  C_15 
ROOT
ATOM      1  C   UNL d   1     -43.248-121.995 -50.623  0.00  0.00     0.279 C 
ATOM      2  N   UNL d   1     -43.540-121.976 -49.853  0.00  0.00    -0.208 NA
ATOM      3  O   UNL d   1     -43.647-121.595 -51.227  0.00  0.00    -0.265 OA
ENDROOT
BRANCH   1   4
ATOM      4  C   UNL d   1     -42.556-122.414 -50.794  0.00  0.00     0.065 C 
BRANCH   4   5
ATOM      5  C   UNL d   1     -42.557-122.994 -51.387  0.00  0.00     0.030 C 
BRANCH   5   6
ATOM      6  C   UNL d   1     -42.045-122.931 -52.031  0.00  0.00     0.100 A 
ATOM      7  O   UNL d   1     -41.962-122.271 -52.514  0.00  0.00    -0.307 OA
ATOM      8  C   UNL d   1     -41.395-122.449 -53.082  0.00  0.00     0.100 A 
ATOM      9  C   UNL d   1     -41.127-123.231 -52.944  0.00  0.00     0.027 A 
ATOM     10  C   UNL d   1     -41.535-123.519 -52.293  0.00  0.00     0.027 A 
BRANCH   8  11
ATOM     11  C   UNL d   1     -41.132-121.955 -53.682  0.00  0.00     0.025 C 
ATOM     12  C   UNL d   1     -41.540-121.905 -54.397  0.00  0.00     0.002 C 
ENDBRANCH   8  11
ENDBRANCH   5   6
ENDBRANCH   4   5
ENDBRANCH   1   4
BRANCH   2  13
ATOM     13  C   UNL d   1     -43.133-122.382 -49.249  0.00  0.00     0.085 A 
ATOM     14  C   UNL d   1     -42.542-121.995 -48.827  0.00  0.00     0.019 A 
ATOM     15  C   UNL d   1     -42.139-122.401 -48.227  0.00  0.00     0.005 A 
ATOM     16  C   UNL d   1     -42.327-123.186 -48.054  0.00  0.00     0.039 A 
ATOM     17  C   UNL d   1     -42.932-123.566 -48.493  0.00  0.00     0.005 A 
ATOM     18  C   UNL d   1     -43.328-123.163 -49.085  0.00  0.00     0.019 A 
BRANCH  16  19
ATOM     19  C   UNL d   1     -41.929-123.593 -47.458  0.00  0.00     0.196 C 
ATOM     20  O   UNL d   1     -42.327-123.817 -46.770  0.00  0.00    -0.287 OA
ATOM     21  C   UNL d   1     -41.128-123.777 -47.550  0.00  0.00     0.045 C 
ENDBRANCH  16  19
ENDBRANCH   2  13
TORSDOF 6
ENDMDL
MODEL 3
REMARK VINA RESULT:       2.1      1.296      4.559
REMARK  6 active torsions:
REMARK  status: ('A' for Active; 'I' for Inactive)
REMARK    1  A    between atoms: C_15  and  C_2 
REMARK    2  A    between atoms: C_19  and  C_3 
REMARK    3  A    between atoms: C_4  and  C_16 
REMARK       I    between atoms: N_7  and  C_4 
REMARK    4  A    between atoms: C_14  and  N_7 
REMARK    5  A    between atoms: C_8  and  C_9 
REMARK    6  A    between atoms: C_16  and  C_15 
ROOT
ATOM      1  C   UNL d   1     -41.322-123.400 -52.715  0.00  0.00     0.279 C 
ATOM      2  N   UNL d   1     -41.315-123.813 -52.004  0.00  0.00    -0.208 NA
ATOM      3  O   UNL d   1     -41.124-123.785 -53.421  0.00  0.00    -0.265 OA
ENDROOT
BRANCH   1   4
ATOM      4  C   UNL d   1     -41.527-122.599 -52.728  0.00  0.00     0.065 C 
BRANCH   4   5
ATOM      5  C   UNL d   1     -41.159-122.084 -53.264  0.00  0.00     0.030 C 
BRANCH   5   6
ATOM      6  C   UNL d   1     -41.592-121.744 -53.879  0.00  0.00     0.100 A 
ATOM      7  O   UNL d   1     -41.670-122.054 -54.636  0.00  0.00    -0.307 OA
ATOM      8  C   UNL d   1     -42.146-121.539 -55.066  0.00  0.00     0.100 A 
ATOM      9  C   UNL d   1     -42.361-120.904 -54.564  0.00  0.00     0.027 A 
ATOM     10  C   UNL d   1     -42.013-121.042 -53.833  0.00  0.00     0.027 A 
BRANCH   8  11
ATOM     11  C   UNL d   1     -42.374-121.624 -55.850  0.00  0.00     0.025 C 
ATOM     12  C   UNL d   1     -42.727-122.321 -56.114  0.00  0.00     0.002 C 
ENDBRANCH   8  11
ENDBRANCH   5   6
ENDBRANCH   4   5
ENDBRANCH   1   4
BRANCH   2  13
ATOM     13  C   UNL d   1     -41.516-123.419 -51.297  0.00  0.00     0.085 A 
ATOM     14  C   UNL d   1     -42.084-122.824 -51.312  0.00  0.00     0.019 A 
ATOM     15  C   UNL d   1     -42.281-122.434 -50.608  0.00  0.00     0.005 A 
ATOM     16  C   UNL d   1     -41.913-122.639 -49.898  0.00  0.00     0.039 A 
ATOM     17  C   UNL d   1     -41.336-123.247 -49.900  0.00  0.00     0.005 A 
ATOM     18  C   UNL d   1     -41.142-123.631 -50.597  0.00  0.00     0.019 A 
BRANCH  16  19
ATOM     19  C   UNL d   1     -42.106-122.253 -49.196  0.00  0.00     0.196 C 
ATOM     20  O   UNL d   1     -42.803-122.444 -48.796  0.00  0.00    -0.287 OA
ATOM     21  C   UNL d   1     -41.602-121.673 -48.893  0.00  0.00     0.045 C 
ENDBRANCH  16  19
ENDBRANCH   2  13
TORSDOF 6
ENDMDL
