MODEL 1
REMARK VINA RESULT:      13.3      0.000      0.000
REMARK  1 active torsions:
REMARK  status: ('A' for Active; 'I' for Inactive)
REMARK    1  A    between atoms: C_2  and  N_1 
ROOT
ATOM      1  C   UNL d   1     -56.932 -98.784 -44.413  0.00  0.00     0.127 A 
ATOM      2  C   UNL d   1     -57.431 -98.791 -43.752  0.00  0.00     0.025 A 
ATOM      3  C   UNL d   1     -58.247 -98.782 -43.850  0.00  0.00     0.021 A 
ATOM      4  N   UNL d   1     -59.558 -98.780 -43.289  0.00  0.00    -0.242 NA
ATOM      5  C   UNL d   1     -58.570 -98.767 -44.607  0.00  0.00     0.003 A 
ATOM      6  C   UNL d   1     -57.266 -98.768 -45.170  0.00  0.00     0.024 A 
ATOM      7  C   UNL d   1     -58.080 -98.759 -45.269  0.00  0.00     0.002 A 
ATOM      8  C   UNL d   1     -58.742 -98.789 -43.191  0.00  0.00     0.099 A 
ATOM      9  C   UNL d   1     -59.881 -98.765 -44.046  0.00  0.00     0.099 A 
ATOM     10  C   UNL d   1     -59.395 -98.757 -44.715  0.00  0.00     0.021 A 
ENDROOT
BRANCH   1  11
ATOM     11  N   UNL d   1     -56.113 -98.793 -44.316  0.00  0.00    -0.114 N 
ATOM     12  O   UNL d   1     -55.623 -98.821 -44.976  0.00  0.00    -0.532 OA
ATOM     13  O   UNL d   1     -55.781 -98.773 -43.558  0.00  0.00    -0.532 OA
ENDBRANCH   1  11
TORSDOF 1
ENDMDL
