MODEL 1
REMARK VINA RESULT:      99.6      0.000      0.000
REMARK  11 active torsions:
REMARK  status: ('A' for Active; 'I' for Inactive)
REMARK    1  A    between atoms: N_2  and  S_1 
REMARK    2  A    between atoms: C_4  and  S_1 
REMARK    3  A    between atoms: C_22  and  N_2 
REMARK    4  A    between atoms: C_3  and  C_8 
REMARK       I    between atoms: N_16  and  C_3 
REMARK    5  A    between atoms: O_28  and  C_7 
REMARK    6  A    between atoms: C_9  and  C_10 
REMARK    7  A    between atoms: O_29  and  C_11 
REMARK    8  A    between atoms: C_30  and  N_16 
REMARK    9  A    between atoms: C_24  and  C_22 
REMARK   10  A    between atoms: C_23  and  C_34 
REMARK   11  A    between atoms: C_34  and  C_30 
ROOT
ATOM      1  C   UNL d   1      61.632  46.885  50.874  0.00  0.00     0.058 A 
ATOM      2  C   UNL d   1      61.971  47.292  50.250  0.00  0.00     0.005 A 
ATOM      3  C   UNL d   1      61.223  47.312  51.462  0.00  0.00     0.005 A 
ATOM      4  C   UNL d   1      61.506  48.537  50.782  0.00  0.00     0.020 A 
ATOM      5  C   UNL d   1      61.913  48.117  50.198  0.00  0.00     0.002 A 
ATOM      6  C   UNL d   1      61.164  48.136  51.410  0.00  0.00     0.002 A 
ENDROOT
BRANCH   1   7
ATOM      7  C   UNL d   1      61.689  46.069  50.928  0.00  0.00     0.279 C 
ATOM      8  O   UNL d   1      62.351  45.682  50.613  0.00  0.00    -0.265 OA
ATOM      9  N   UNL d   1      61.093  45.636  51.292  0.00  0.00    -0.206 NA
BRANCH   9  10
ATOM     10  C   UNL d   1      61.156  44.815  51.343  0.00  0.00     0.102 C 
BRANCH  10  11
ATOM     11  C   UNL d   1      61.624  44.416  50.806  0.00  0.00     0.021 C 
BRANCH  11  12
ATOM     12  C   UNL d   1      61.806  43.634  50.935  0.00  0.00     0.004 A 
ATOM     13  C   UNL d   1      61.558  43.250  51.622  0.00  0.00     0.026 A 
ATOM     14  C   UNL d   1      61.745  42.465  51.743  0.00  0.00     0.116 A 
ATOM     15  C   UNL d   1      62.188  42.049  51.172  0.00  0.00     0.116 A 
ATOM     16  C   UNL d   1      62.435  42.425  50.494  0.00  0.00     0.026 A 
ATOM     17  C   UNL d   1      62.244  43.220  50.371  0.00  0.00     0.002 A 
BRANCH  14  18
ATOM     18  O   UNL d   1      61.495  42.084  52.432  0.00  0.00    -0.326 OA
ATOM     19  C   UNL d   1      61.391  41.226  52.562  0.00  0.00     0.181 C 
ENDBRANCH  14  18
BRANCH  15  20
ATOM     20  O   UNL d   1      62.383  41.269  51.277  0.00  0.00    -0.326 OA
ATOM     21  C   UNL d   1      63.156  41.029  51.230  0.00  0.00     0.181 C 
ENDBRANCH  15  20
ENDBRANCH  11  12
ENDBRANCH  10  11
ENDBRANCH   9  10
ENDBRANCH   1   7
BRANCH   4  22
ATOM     22  C   UNL d   1      61.447  49.362  50.730  0.00  0.00     0.112 C 
BRANCH  22  23
ATOM     23  N   UNL d   1      60.959  49.707  50.169  0.00  0.00    -0.157 NA
BRANCH  23  24
ATOM     24  S   UNL d   1      60.136  49.692  50.252  0.00  0.00     0.285 S 
ATOM     25  O   UNL d   1      60.214  49.705  51.068  0.00  0.00    -0.198 OA
ATOM     26  O   UNL d   1      60.065  49.679  49.427  0.00  0.00    -0.198 OA
BRANCH  24  27
ATOM     27  C   UNL d   1      59.319  49.677  50.319  0.00  0.00     0.105 A 
ATOM     28  C   UNL d   1      58.979  49.708  51.070  0.00  0.00     0.013 A 
ATOM     29  C   UNL d   1      58.149  49.693  51.147  0.00  0.00    -0.004 A 
ATOM     30  C   UNL d   1      57.675  49.648  50.466  0.00  0.00    -0.023 A 
ATOM     31  C   UNL d   1      58.021  49.618  49.722  0.00  0.00    -0.004 A 
ATOM     32  C   UNL d   1      58.846  49.633  49.651  0.00  0.00     0.013 A 
BRANCH  30  33
ATOM     33  C   UNL d   1      56.853  49.633  50.540  0.00  0.00     0.019 C 
ATOM     34  C   UNL d   1      56.778  49.707  49.723  0.00  0.00     0.004 C 
ATOM     35  C   UNL d   1      56.937  49.559  51.355  0.00  0.00     0.004 C 
ATOM     36  C   UNL d   1      56.033  49.619  50.612  0.00  0.00     0.004 C 
ENDBRANCH  30  33
ENDBRANCH  24  27
ENDBRANCH  23  24
ENDBRANCH  22  23
ENDBRANCH   4  22
TORSDOF 11
ENDMDL
