MODEL 1
REMARK VINA RESULT:      -7.0      0.000      0.000
REMARK  7 active torsions:
REMARK  status: ('A' for Active; 'I' for Inactive)
REMARK    1  A    between atoms: C_12  and  C_3 
REMARK    2  A    between atoms: N_9  and  C_5 
REMARK    3  A    between atoms: C_17  and  N_9 
REMARK    4  A    between atoms: N_14  and  C_12 
REMARK    5  A    between atoms: C_18  and  N_14 
REMARK    6  A    between atoms: C_16  and  C_18 
REMARK    7  A    between atoms: C_19  and  C_17 
ROOT
ATOM      1  N   UNL d   1      50.847  33.899  52.649  0.00  0.00    -0.258 N 
ATOM      2  C   UNL d   1      51.370  33.289  52.430  0.00  0.00     0.270 A 
ATOM      3  C   UNL d   1      52.043  33.128  52.878  0.00  0.00     0.111 A 
ATOM      4  N   UNL d   1      51.677  34.196  53.783  0.00  0.00    -0.209 NA
ATOM      5  C   UNL d   1      52.197  33.582  53.556  0.00  0.00     0.170 A 
ATOM      6  C   UNL d   1      50.998  34.345  53.316  0.00  0.00     0.152 A 
ATOM      7  C   UNL d   1      50.187  34.043  52.192  0.00  0.00     0.084 A 
ATOM      8  C   UNL d   1      50.493  34.950  53.546  0.00  0.00     0.038 A 
ATOM      9  C   UNL d   1      49.673  34.637  52.403  0.00  0.00     0.018 A 
ATOM     10  C   UNL d   1      49.826  35.092  53.081  0.00  0.00     0.005 A 
ATOM     11  O   UNL d   1      51.219  32.842  51.762  0.00  0.00    -0.266 OA
ATOM     12  C   UNL d   1      48.994  34.784  51.932  0.00  0.00     0.002 C 
ENDROOT
BRANCH   3  13
ATOM     13  C   UNL d   1      52.545  32.523  52.643  0.00  0.00     0.107 C 
BRANCH  13  14
ATOM     14  N   UNL d   1      52.431  31.755  52.914  0.00  0.00    -0.242 NA
BRANCH  14  15
ATOM     15  C   UNL d   1      52.957  31.158  52.696  0.00  0.00     0.101 C 
BRANCH  15  16
ATOM     16  C   UNL d   1      53.036  30.481  53.148  0.00  0.00     0.038 A 
ATOM     17  C   UNL d   1      52.465  29.878  53.098  0.00  0.00     0.101 A 
ATOM     18  N   UNL d   1      52.545  29.202  53.550  0.00  0.00    -0.242 NA
ATOM     19  C   UNL d   1      53.198  29.117  54.060  0.00  0.00     0.099 A 
ATOM     20  C   UNL d   1      53.759  29.700  54.115  0.00  0.00     0.021 A 
ATOM     21  C   UNL d   1      53.677  30.388  53.655  0.00  0.00     0.005 A 
ENDBRANCH  15  16
ENDBRANCH  14  15
ENDBRANCH  13  14
ENDBRANCH   3  13
BRANCH   5  22
ATOM     22  N   UNL d   1      52.859  33.456  54.035  0.00  0.00    -0.225 NA
BRANCH  22  23
ATOM     23  C   UNL d   1      53.247  34.085  54.417  0.00  0.00     0.101 C 
BRANCH  23  24
ATOM     24  C   UNL d   1      53.971  33.958  54.790  0.00  0.00     0.019 A 
ATOM     25  C   UNL d   1      54.004  33.595  55.512  0.00  0.00     0.002 A 
ATOM     26  C   UNL d   1      54.742  33.473  55.877  0.00  0.00     0.000 A 
ATOM     27  C   UNL d   1      55.441  33.713  55.521  0.00  0.00     0.000 A 
ATOM     28  C   UNL d   1      55.402  34.087  54.779  0.00  0.00     0.000 A 
ATOM     29  C   UNL d   1      54.669  34.213  54.406  0.00  0.00     0.002 A 
ENDBRANCH  23  24
ENDBRANCH  22  23
ENDBRANCH   5  22
TORSDOF 7
ENDMDL
MODEL 2
REMARK VINA RESULT:      -5.5      1.040      3.797
REMARK  7 active torsions:
REMARK  status: ('A' for Active; 'I' for Inactive)
REMARK    1  A    between atoms: C_12  and  C_3 
REMARK    2  A    between atoms: N_9  and  C_5 
REMARK    3  A    between atoms: C_17  and  N_9 
REMARK    4  A    between atoms: N_14  and  C_12 
REMARK    5  A    between atoms: C_18  and  N_14 
REMARK    6  A    between atoms: C_16  and  C_18 
REMARK    7  A    between atoms: C_19  and  C_17 
ROOT
ATOM      1  N   UNL d   1      54.134  33.576  54.359  0.00  0.00    -0.258 N 
ATOM      2  C   UNL d   1      53.953  32.938  53.856  0.00  0.00     0.270 A 
ATOM      3  C   UNL d   1      53.255  32.931  53.416  0.00  0.00     0.111 A 
ATOM      4  N   UNL d   1      52.905  34.217  53.984  0.00  0.00    -0.209 NA
ATOM      5  C   UNL d   1      52.730  33.572  53.480  0.00  0.00     0.170 A 
ATOM      6  C   UNL d   1      53.618  34.206  54.422  0.00  0.00     0.152 A 
ATOM      7  C   UNL d   1      54.829  33.563  54.786  0.00  0.00     0.084 A 
ATOM      8  C   UNL d   1      53.782  34.842  54.914  0.00  0.00     0.038 A 
ATOM      9  C   UNL d   1      55.011  34.184  55.279  0.00  0.00     0.018 A 
ATOM     10  C   UNL d   1      54.486  34.825  55.343  0.00  0.00     0.005 A 
ATOM     11  O   UNL d   1      54.470  32.307  53.793  0.00  0.00    -0.266 OA
ATOM     12  C   UNL d   1      55.727  34.169  55.718  0.00  0.00     0.002 C 
ENDROOT
BRANCH   3  13
ATOM     13  C   UNL d   1      53.097  32.293  52.927  0.00  0.00     0.107 C 
BRANCH  13  14
ATOM     14  N   UNL d   1      52.818  31.585  53.238  0.00  0.00    -0.242 NA
BRANCH  14  15
ATOM     15  C   UNL d   1      52.931  30.880  52.826  0.00  0.00     0.101 C 
BRANCH  15  16
ATOM     16  C   UNL d   1      52.861  30.156  53.201  0.00  0.00     0.038 A 
ATOM     17  C   UNL d   1      52.135  29.750  53.191  0.00  0.00     0.101 A 
ATOM     18  N   UNL d   1      52.065  29.028  53.566  0.00  0.00    -0.242 NA
ATOM     19  C   UNL d   1      52.721  28.698  53.958  0.00  0.00     0.099 A 
ATOM     20  C   UNL d   1      53.433  29.087  53.974  0.00  0.00     0.021 A 
ATOM     21  C   UNL d   1      53.503  29.822  53.592  0.00  0.00     0.005 A 
ENDBRANCH  15  16
ENDBRANCH  14  15
ENDBRANCH  13  14
ENDBRANCH   3  13
BRANCH   5  22
ATOM     22  N   UNL d   1      52.020  33.608  53.058  0.00  0.00    -0.225 NA
BRANCH  22  23
ATOM     23  C   UNL d   1      51.645  34.334  52.898  0.00  0.00     0.101 C 
BRANCH  23  24
ATOM     24  C   UNL d   1      50.918  34.345  52.510  0.00  0.00     0.019 A 
ATOM     25  C   UNL d   1      50.875  34.222  51.711  0.00  0.00     0.002 A 
ATOM     26  C   UNL d   1      50.135  34.236  51.331  0.00  0.00     0.000 A 
ATOM     27  C   UNL d   1      49.442  34.373  51.750  0.00  0.00     0.000 A 
ATOM     28  C   UNL d   1      49.490  34.498  52.571  0.00  0.00     0.000 A 
ATOM     29  C   UNL d   1      50.226  34.486  52.959  0.00  0.00     0.002 A 
ENDBRANCH  23  24
ENDBRANCH  22  23
ENDBRANCH   5  22
TORSDOF 7
ENDMDL
MODEL 3
REMARK VINA RESULT:      -5.5      0.959      4.052
REMARK  7 active torsions:
REMARK  status: ('A' for Active; 'I' for Inactive)
REMARK    1  A    between atoms: C_12  and  C_3 
REMARK    2  A    between atoms: N_9  and  C_5 
REMARK    3  A    between atoms: C_17  and  N_9 
REMARK    4  A    between atoms: N_14  and  C_12 
REMARK    5  A    between atoms: C_18  and  N_14 
REMARK    6  A    between atoms: C_16  and  C_18 
REMARK    7  A    between atoms: C_19  and  C_17 
ROOT
ATOM      1  N   UNL d   1      52.812  30.539  53.213  0.00  0.00    -0.258 N 
ATOM      2  C   UNL d   1      52.626  31.256  52.834  0.00  0.00     0.270 A 
ATOM      3  C   UNL d   1      52.927  31.972  53.113  0.00  0.00     0.111 A 
ATOM      4  N   UNL d   1      53.616  31.253  54.164  0.00  0.00    -0.209 NA
ATOM      5  C   UNL d   1      53.424  31.970  53.779  0.00  0.00     0.170 A 
ATOM      6  C   UNL d   1      53.300  30.537  53.868  0.00  0.00     0.152 A 
ATOM      7  C   UNL d   1      52.504  29.841  52.922  0.00  0.00     0.084 A 
ATOM      8  C   UNL d   1      53.494  29.838  54.252  0.00  0.00     0.038 A 
ATOM      9  C   UNL d   1      52.683  29.138  53.288  0.00  0.00     0.018 A 
ATOM     10  C   UNL d   1      53.179  29.136  53.955  0.00  0.00     0.005 A 
ATOM     11  O   UNL d   1      52.137  31.258  52.178  0.00  0.00    -0.266 OA
ATOM     12  C   UNL d   1      52.365  28.421  52.988  0.00  0.00     0.002 C 
ENDROOT
BRANCH   3  13
ATOM     13  C   UNL d   1      52.730  32.666  52.725  0.00  0.00     0.107 C 
BRANCH  13  14
ATOM     14  N   UNL d   1      52.000  33.023  52.848  0.00  0.00    -0.242 NA
BRANCH  14  15
ATOM     15  C   UNL d   1      51.861  33.787  52.569  0.00  0.00     0.101 C 
BRANCH  15  16
ATOM     16  C   UNL d   1      51.108  34.107  52.575  0.00  0.00     0.038 A 
ATOM     17  C   UNL d   1      50.782  34.391  53.286  0.00  0.00     0.101 A 
ATOM     18  N   UNL d   1      50.030  34.711  53.291  0.00  0.00    -0.242 NA
ATOM     19  C   UNL d   1      49.591  34.752  52.586  0.00  0.00     0.099 A 
ATOM     20  C   UNL d   1      49.900  34.477  51.888  0.00  0.00     0.021 A 
ATOM     21  C   UNL d   1      50.666  34.152  51.883  0.00  0.00     0.005 A 
ENDBRANCH  15  16
ENDBRANCH  14  15
ENDBRANCH  13  14
ENDBRANCH   3  13
BRANCH   5  22
ATOM     22  N   UNL d   1      53.749  32.663  54.092  0.00  0.00    -0.225 NA
BRANCH  22  23
ATOM     23  C   UNL d   1      54.323  32.641  54.694  0.00  0.00     0.101 C 
BRANCH  23  24
ATOM     24  C   UNL d   1      54.713  33.332  54.917  0.00  0.00     0.019 A 
ATOM     25  C   UNL d   1      54.382  33.838  55.454  0.00  0.00     0.002 A 
ATOM     26  C   UNL d   1      54.787  34.533  55.670  0.00  0.00     0.000 A 
ATOM     27  C   UNL d   1      55.520  34.718  55.349  0.00  0.00     0.000 A 
ATOM     28  C   UNL d   1      55.857  34.194  54.797  0.00  0.00     0.000 A 
ATOM     29  C   UNL d   1      55.459  33.498  54.575  0.00  0.00     0.002 A 
ENDBRANCH  23  24
ENDBRANCH  22  23
ENDBRANCH   5  22
TORSDOF 7
ENDMDL
MODEL 4
REMARK VINA RESULT:      -5.1      1.227      4.392
REMARK  7 active torsions:
REMARK  status: ('A' for Active; 'I' for Inactive)
REMARK    1  A    between atoms: C_12  and  C_3 
REMARK    2  A    between atoms: N_9  and  C_5 
REMARK    3  A    between atoms: C_17  and  N_9 
REMARK    4  A    between atoms: N_14  and  C_12 
REMARK    5  A    between atoms: C_18  and  N_14 
REMARK    6  A    between atoms: C_16  and  C_18 
REMARK    7  A    between atoms: C_19  and  C_17 
ROOT
ATOM      1  N   UNL d   1      52.739  34.800  53.924  0.00  0.00    -0.258 N 
ATOM      2  C   UNL d   1      52.236  34.637  53.281  0.00  0.00     0.270 A 
ATOM      3  C   UNL d   1      52.130  33.864  53.013  0.00  0.00     0.111 A 
ATOM      4  N   UNL d   1      53.040  33.400  54.039  0.00  0.00    -0.209 NA
ATOM      5  C   UNL d   1      52.533  33.245  53.392  0.00  0.00     0.170 A 
ATOM      6  C   UNL d   1      53.135  34.190  54.297  0.00  0.00     0.152 A 
ATOM      7  C   UNL d   1      52.831  35.571  54.175  0.00  0.00     0.084 A 
ATOM      8  C   UNL d   1      53.635  34.334  54.932  0.00  0.00     0.038 A 
ATOM      9  C   UNL d   1      53.322  35.735  54.802  0.00  0.00     0.018 A 
ATOM     10  C   UNL d   1      53.725  35.115  55.182  0.00  0.00     0.005 A 
ATOM     11  O   UNL d   1      51.840  35.247  52.908  0.00  0.00    -0.266 OA
ATOM     12  C   UNL d   1      53.415  36.529  55.059  0.00  0.00     0.002 C 
ENDROOT
BRANCH   3  13
ATOM     13  C   UNL d   1      51.630  33.727  52.378  0.00  0.00     0.107 C 
BRANCH  13  14
ATOM     14  N   UNL d   1      50.869  34.040  52.368  0.00  0.00    -0.242 NA
BRANCH  14  15
ATOM     15  C   UNL d   1      50.317  33.764  51.821  0.00  0.00     0.101 C 
BRANCH  15  16
ATOM     16  C   UNL d   1      49.634  34.186  51.664  0.00  0.00     0.038 A 
ATOM     17  C   UNL d   1      49.211  34.541  52.287  0.00  0.00     0.101 A 
ATOM     18  N   UNL d   1      48.529  34.962  52.129  0.00  0.00    -0.242 NA
ATOM     19  C   UNL d   1      48.256  35.035  51.346  0.00  0.00     0.099 A 
ATOM     20  C   UNL d   1      48.662  34.693  50.733  0.00  0.00     0.021 A 
ATOM     21  C   UNL d   1      49.357  34.264  50.893  0.00  0.00     0.005 A 
ENDBRANCH  15  16
ENDBRANCH  14  15
ENDBRANCH  13  14
ENDBRANCH   3  13
BRANCH   5  22
ATOM     22  N   UNL d   1      52.456  32.455  53.157  0.00  0.00    -0.225 NA
BRANCH  22  23
ATOM     23  C   UNL d   1      53.118  31.956  53.089  0.00  0.00     0.101 C 
BRANCH  23  24
ATOM     24  C   UNL d   1      53.033  31.142  53.194  0.00  0.00     0.019 A 
ATOM     25  C   UNL d   1      52.434  30.741  52.827  0.00  0.00     0.002 A 
ATOM     26  C   UNL d   1      52.359  29.919  52.941  0.00  0.00     0.000 A 
ATOM     27  C   UNL d   1      52.882  29.504  53.419  0.00  0.00     0.000 A 
ATOM     28  C   UNL d   1      53.496  29.922  53.794  0.00  0.00     0.000 A 
ATOM     29  C   UNL d   1      53.578  30.743  53.686  0.00  0.00     0.002 A 
ENDBRANCH  23  24
ENDBRANCH  22  23
ENDBRANCH   5  22
TORSDOF 7
ENDMDL
MODEL 5
REMARK VINA RESULT:      -5.0      1.064      3.337
REMARK  7 active torsions:
REMARK  status: ('A' for Active; 'I' for Inactive)
REMARK    1  A    between atoms: C_12  and  C_3 
REMARK    2  A    between atoms: N_9  and  C_5 
REMARK    3  A    between atoms: C_17  and  N_9 
REMARK    4  A    between atoms: N_14  and  C_12 
REMARK    5  A    between atoms: C_18  and  N_14 
REMARK    6  A    between atoms: C_16  and  C_18 
REMARK    7  A    between atoms: C_19  and  C_17 
ROOT
ATOM      1  N   UNL d   1      50.392  34.385  52.756  0.00  0.00    -0.258 N 
ATOM      2  C   UNL d   1      50.895  34.427  53.418  0.00  0.00     0.270 A 
ATOM      3  C   UNL d   1      51.488  33.866  53.535  0.00  0.00     0.111 A 
ATOM      4  N   UNL d   1      51.079  33.204  52.315  0.00  0.00    -0.209 NA
ATOM      5  C   UNL d   1      51.580  33.253  52.982  0.00  0.00     0.170 A 
ATOM      6  C   UNL d   1      50.482  33.782  52.213  0.00  0.00     0.152 A 
ATOM      7  C   UNL d   1      49.811  34.950  52.658  0.00  0.00     0.084 A 
ATOM      8  C   UNL d   1      49.995  33.726  51.555  0.00  0.00     0.038 A 
ATOM      9  C   UNL d   1      49.317  34.913  52.013  0.00  0.00     0.018 A 
ATOM     10  C   UNL d   1      49.410  34.300  51.460  0.00  0.00     0.005 A 
ATOM     11  O   UNL d   1      50.804  35.031  53.963  0.00  0.00    -0.266 OA
ATOM     12  C   UNL d   1      48.721  35.495  51.914  0.00  0.00     0.002 C 
ENDROOT
BRANCH   3  13
ATOM     13  C   UNL d   1      51.972  33.927  54.194  0.00  0.00     0.107 C 
BRANCH  13  14
ATOM     14  N   UNL d   1      52.717  34.270  54.137  0.00  0.00    -0.242 NA
BRANCH  14  15
ATOM     15  C   UNL d   1      53.127  34.484  54.820  0.00  0.00     0.101 C 
BRANCH  15  16
ATOM     16  C   UNL d   1      53.905  34.257  54.933  0.00  0.00     0.038 A 
ATOM     17  C   UNL d   1      54.518  34.676  54.557  0.00  0.00     0.101 A 
ATOM     18  N   UNL d   1      55.295  34.450  54.670  0.00  0.00    -0.242 NA
ATOM     19  C   UNL d   1      55.473  33.801  55.161  0.00  0.00     0.099 A 
ATOM     20  C   UNL d   1      54.881  33.388  55.531  0.00  0.00     0.021 A 
ATOM     21  C   UNL d   1      54.090  33.618  55.416  0.00  0.00     0.005 A 
ENDBRANCH  15  16
ENDBRANCH  14  15
ENDBRANCH  13  14
ENDBRANCH   3  13
BRANCH   5  22
ATOM     22  N   UNL d   1      52.161  32.669  53.059  0.00  0.00    -0.225 NA
BRANCH  22  23
ATOM     23  C   UNL d   1      52.080  31.925  52.696  0.00  0.00     0.101 C 
BRANCH  23  24
ATOM     24  C   UNL d   1      52.562  31.298  52.929  0.00  0.00     0.019 A 
ATOM     25  C   UNL d   1      53.363  31.330  52.814  0.00  0.00     0.002 A 
ATOM     26  C   UNL d   1      53.839  30.691  53.053  0.00  0.00     0.000 A 
ATOM     27  C   UNL d   1      53.514  30.024  53.406  0.00  0.00     0.000 A 
ATOM     28  C   UNL d   1      52.691  29.996  53.522  0.00  0.00     0.000 A 
ATOM     29  C   UNL d   1      52.207  30.630  53.285  0.00  0.00     0.002 A 
ENDBRANCH  23  24
ENDBRANCH  22  23
ENDBRANCH   5  22
TORSDOF 7
ENDMDL
