MODEL 1
REMARK VINA RESULT:      50.9      0.000      0.000
REMARK  3 active torsions:
REMARK  status: ('A' for Active; 'I' for Inactive)
REMARK    1  A    between atoms: C_7  and  C_2 
REMARK       I    between atoms: N_9  and  C_7 
REMARK    2  A    between atoms: C_12  and  N_9 
REMARK    3  A    between atoms: C_11  and  C_12 
ROOT
ATOM      1  C   UNL d   1     -51.468  26.887  33.388  0.00  0.00     0.285 C 
ATOM      2  N   UNL d   1     -51.906  26.191  33.317  0.00  0.00    -0.206 NA
ATOM      3  O   UNL d   1     -51.836  27.620  33.307  0.00  0.00    -0.265 OA
ENDROOT
BRANCH   1   4
ATOM      4  C   UNL d   1     -50.651  26.848  33.541  0.00  0.00     0.133 A 
ATOM      5  C   UNL d   1     -50.261  27.475  33.916  0.00  0.00     0.272 A 
ATOM      6  N   UNL d   1     -49.462  27.428  34.062  0.00  0.00    -0.252 N 
ATOM      7  O   UNL d   1     -50.686  28.145  34.140  0.00  0.00    -0.266 OA
ATOM      8  C   UNL d   1     -49.037  26.759  33.839  0.00  0.00     0.182 A 
ATOM      9  C   UNL d   1     -48.933  27.951  34.418  0.00  0.00     0.092 A 
ATOM     10  N   UNL d   1     -49.413  26.138  33.469  0.00  0.00    -0.220 NA
ATOM     11  S   UNL d   1     -48.246  26.867  34.055  0.00  0.00    -0.048 SA
ATOM     12  C   UNL d   1     -50.227  26.179  33.318  0.00  0.00     0.111 A 
ATOM     13  C   UNL d   1     -48.185  27.604  34.413  0.00  0.00     0.057 A 
ENDBRANCH   1   4
BRANCH   2  14
ATOM     14  C   UNL d   1     -51.535  25.461  33.399  0.00  0.00     0.103 C 
BRANCH  14  15
ATOM     15  C   UNL d   1     -51.986  24.775  33.391  0.00  0.00     0.030 A 
ATOM     16  C   UNL d   1     -52.813  24.819  33.435  0.00  0.00     0.059 A 
ATOM     17 CL   UNL d   1     -53.180  25.553  33.488  0.00  0.00    -0.082 Cl
ATOM     18  C   UNL d   1     -53.268  24.140  33.428  0.00  0.00     0.011 A 
ATOM     19  C   UNL d   1     -52.900  23.396  33.375  0.00  0.00     0.001 A 
ATOM     20  C   UNL d   1     -52.078  23.350  33.330  0.00  0.00     0.000 A 
ATOM     21  C   UNL d   1     -51.618  24.040  33.338  0.00  0.00     0.002 A 
ENDBRANCH  14  15
ENDBRANCH   2  14
TORSDOF 3
ENDMDL
