MODEL 1
REMARK VINA RESULT:      -8.5      0.000      0.000
REMARK  4 active torsions:
REMARK  status: ('A' for Active; 'I' for Inactive)
REMARK    1  A    between atoms: C_6  and  C_1 
REMARK    2  A    between atoms: C_13  and  C_2 
REMARK    3  A    between atoms: P_4  and  C_3 
REMARK    4  A    between atoms: C_17  and  C_13 
ROOT
ATOM      1  C   UNL d   1      52.617  32.457  53.045  0.00  0.00     0.112 A 
ATOM      2  C   UNL d   1      53.249  32.453  53.567  0.00  0.00     0.052 A 
ATOM      3  N   UNL d   1      52.502  31.680  52.778  0.00  0.00    -0.217 NA
ATOM      4  C   UNL d   1      53.069  31.200  53.141  0.00  0.00     0.215 A 
ATOM      5  S   UNL d   1      53.528  31.677  53.626  0.00  0.00    -0.045 SA
ATOM      6  N   UNL d   1      53.161  30.372  53.035  0.00  0.00    -0.120 N 
ENDROOT
BRANCH   1   7
ATOM      7  C   UNL d   1      52.191  33.137  52.842  0.00  0.00     0.119 A 
ATOM      8  O   UNL d   1      51.445  33.310  53.146  0.00  0.00    -0.297 OA
ATOM      9  C   UNL d   1      51.196  34.028  52.821  0.00  0.00     0.191 A 
ATOM     10  C   UNL d   1      51.789  34.296  52.316  0.00  0.00     0.036 A 
ATOM     11  C   UNL d   1      52.402  33.747  52.330  0.00  0.00     0.029 A 
BRANCH   9  12
ATOM     12  P   UNL d   1      50.477  34.415  52.971  0.00  0.00     0.321 P 
ATOM     13  O   UNL d   1      50.884  34.989  53.412  0.00  0.00    -0.635 OA
ATOM     14  O   UNL d   1      50.076  33.840  52.529  0.00  0.00    -0.635 OA
ATOM     15  O   UNL d   1      49.759  34.799  53.118  0.00  0.00    -0.635 OA
ENDBRANCH   9  12
ENDBRANCH   1   7
BRANCH   2  16
ATOM     16  C   UNL d   1      53.553  33.112  53.964  0.00  0.00     0.008 C 
BRANCH  16  17
ATOM     17  C   UNL d   1      54.194  33.027  54.475  0.00  0.00     0.001 C 
ATOM     18  C   UNL d   1      54.971  33.151  54.195  0.00  0.00     0.000 C 
ATOM     19  C   UNL d   1      54.067  32.818  55.263  0.00  0.00     0.000 C 
ENDBRANCH  16  17
ENDBRANCH   2  16
TORSDOF 4
ENDMDL
MODEL 2
REMARK VINA RESULT:      -8.4      2.513      3.481
REMARK  4 active torsions:
REMARK  status: ('A' for Active; 'I' for Inactive)
REMARK    1  A    between atoms: C_6  and  C_1 
REMARK    2  A    between atoms: C_13  and  C_2 
REMARK    3  A    between atoms: P_4  and  C_3 
REMARK    4  A    between atoms: C_17  and  C_13 
ROOT
ATOM      1  C   UNL d   1      52.909  32.472  53.453  0.00  0.00     0.112 A 
ATOM      2  C   UNL d   1      53.426  32.935  53.888  0.00  0.00     0.052 A 
ATOM      3  N   UNL d   1      52.270  32.948  53.225  0.00  0.00    -0.217 NA
ATOM      4  C   UNL d   1      52.399  33.708  53.524  0.00  0.00     0.215 A 
ATOM      5  S   UNL d   1      53.111  33.698  53.932  0.00  0.00    -0.045 SA
ATOM      6  N   UNL d   1      51.895  34.373  53.429  0.00  0.00    -0.120 N 
ENDROOT
BRANCH   1   7
ATOM      7  C   UNL d   1      53.035  31.670  53.290  0.00  0.00     0.119 A 
ATOM      8  O   UNL d   1      52.859  31.066  53.822  0.00  0.00    -0.297 OA
ATOM      9  C   UNL d   1      53.057  30.347  53.469  0.00  0.00     0.191 A 
ATOM     10  C   UNL d   1      53.357  30.507  52.719  0.00  0.00     0.036 A 
ATOM     11  C   UNL d   1      53.343  31.322  52.609  0.00  0.00     0.029 A 
BRANCH   9  12
ATOM     12  P   UNL d   1      52.973  29.592  53.804  0.00  0.00     0.321 P 
ATOM     13  O   UNL d   1      52.170  29.593  53.596  0.00  0.00    -0.635 OA
ATOM     14  O   UNL d   1      53.776  29.595  54.011  0.00  0.00    -0.635 OA
ATOM     15  O   UNL d   1      52.893  28.839  54.139  0.00  0.00    -0.635 OA
ENDBRANCH   9  12
ENDBRANCH   1   7
BRANCH   2  16
ATOM     16  C   UNL d   1      54.138  32.681  54.224  0.00  0.00     0.008 C 
BRANCH  16  17
ATOM     17  C   UNL d   1      54.579  33.195  54.695  0.00  0.00     0.001 C 
ATOM     18  C   UNL d   1      54.430  33.243  55.515  0.00  0.00     0.000 C 
ATOM     19  C   UNL d   1      55.168  33.662  54.354  0.00  0.00     0.000 C 
ENDBRANCH  16  17
ENDBRANCH   2  16
TORSDOF 4
ENDMDL
MODEL 3
REMARK VINA RESULT:      -8.3      2.634      3.833
REMARK  4 active torsions:
REMARK  status: ('A' for Active; 'I' for Inactive)
REMARK    1  A    between atoms: C_6  and  C_1 
REMARK    2  A    between atoms: C_13  and  C_2 
REMARK    3  A    between atoms: P_4  and  C_3 
REMARK    4  A    between atoms: C_17  and  C_13 
ROOT
ATOM      1  C   UNL d   1      53.386  32.527  53.926  0.00  0.00     0.112 A 
ATOM      2  C   UNL d   1      52.846  33.094  53.686  0.00  0.00     0.052 A 
ATOM      3  N   UNL d   1      53.887  32.873  54.489  0.00  0.00    -0.217 NA
ATOM      4  C   UNL d   1      53.649  33.658  54.592  0.00  0.00     0.215 A 
ATOM      5  S   UNL d   1      53.009  33.793  54.097  0.00  0.00    -0.045 SA
ATOM      6  N   UNL d   1      53.999  34.220  55.109  0.00  0.00    -0.120 N 
ENDROOT
BRANCH   1   7
ATOM      7  C   UNL d   1      53.399  31.752  53.636  0.00  0.00     0.119 A 
ATOM      8  O   UNL d   1      53.146  31.100  54.073  0.00  0.00    -0.297 OA
ATOM      9  C   UNL d   1      53.241  30.425  53.606  0.00  0.00     0.191 A 
ATOM     10  C   UNL d   1      53.553  30.661  52.881  0.00  0.00     0.036 A 
ATOM     11  C   UNL d   1      53.650  31.478  52.900  0.00  0.00     0.029 A 
BRANCH   9  12
ATOM     12  P   UNL d   1      53.057  29.645  53.822  0.00  0.00     0.321 P 
ATOM     13  O   UNL d   1      52.463  29.629  53.242  0.00  0.00    -0.635 OA
ATOM     14  O   UNL d   1      53.652  29.666  54.399  0.00  0.00    -0.635 OA
ATOM     15  O   UNL d   1      52.877  28.867  54.040  0.00  0.00    -0.635 OA
ENDBRANCH   9  12
ENDBRANCH   1   7
BRANCH   2  16
ATOM     16  C   UNL d   1      52.244  32.985  53.129  0.00  0.00     0.008 C 
BRANCH  16  17
ATOM     17  C   UNL d   1      51.679  33.574  53.011  0.00  0.00     0.001 C 
ATOM     18  C   UNL d   1      50.947  33.537  53.411  0.00  0.00     0.000 C 
ATOM     19  C   UNL d   1      51.837  34.199  52.497  0.00  0.00     0.000 C 
ENDBRANCH  16  17
ENDBRANCH   2  16
TORSDOF 4
ENDMDL
MODEL 4
REMARK VINA RESULT:      -8.0      2.329      3.406
REMARK  4 active torsions:
REMARK  status: ('A' for Active; 'I' for Inactive)
REMARK    1  A    between atoms: C_6  and  C_1 
REMARK    2  A    between atoms: C_13  and  C_2 
REMARK    3  A    between atoms: P_4  and  C_3 
REMARK    4  A    between atoms: C_17  and  C_13 
ROOT
ATOM      1  C   UNL d   1      53.418  32.148  53.465  0.00  0.00     0.112 A 
ATOM      2  C   UNL d   1      52.707  32.442  53.185  0.00  0.00     0.052 A 
ATOM      3  N   UNL d   1      53.414  31.325  53.358  0.00  0.00    -0.217 NA
ATOM      4  C   UNL d   1      52.693  31.118  53.010  0.00  0.00     0.215 A 
ATOM      5  S   UNL d   1      52.259  31.806  52.905  0.00  0.00    -0.045 SA
ATOM      6  N   UNL d   1      52.447  30.343  52.802  0.00  0.00    -0.120 N 
ENDROOT
BRANCH   1   7
ATOM      7  C   UNL d   1      54.015  32.619  53.792  0.00  0.00     0.119 A 
ATOM      8  O   UNL d   1      54.010  32.878  54.574  0.00  0.00    -0.297 OA
ATOM      9  C   UNL d   1      54.689  33.332  54.699  0.00  0.00     0.191 A 
ATOM     10  C   UNL d   1      55.113  33.353  53.993  0.00  0.00     0.036 A 
ATOM     11  C   UNL d   1      54.697  32.913  53.434  0.00  0.00     0.029 A 
BRANCH   9  12
ATOM     12  P   UNL d   1      54.912  33.704  55.406  0.00  0.00     0.321 P 
ATOM     13  O   UNL d   1      54.638  33.047  55.834  0.00  0.00    -0.635 OA
ATOM     14  O   UNL d   1      55.184  34.358  54.976  0.00  0.00    -0.635 OA
ATOM     15  O   UNL d   1      55.136  34.078  56.110  0.00  0.00    -0.635 OA
ENDBRANCH   9  12
ENDBRANCH   1   7
BRANCH   2  16
ATOM     16  C   UNL d   1      52.478  33.237  53.185  0.00  0.00     0.008 C 
BRANCH  16  17
ATOM     17  C   UNL d   1      51.730  33.452  52.912  0.00  0.00     0.001 C 
ATOM     18  C   UNL d   1      51.063  33.364  53.407  0.00  0.00     0.000 C 
ATOM     19  C   UNL d   1      51.641  33.753  52.149  0.00  0.00     0.000 C 
ENDBRANCH  16  17
ENDBRANCH   2  16
TORSDOF 4
ENDMDL
