MODEL 1
REMARK VINA RESULT:      36.5      0.000      0.000
REMARK  5 active torsions:
REMARK  status: ('A' for Active; 'I' for Inactive)
REMARK    1  A    between atoms: C_6  and  C_1 
REMARK    2  A    between atoms: C_7  and  C_2 
REMARK    3  A    between atoms: O_12  and  C_6 
REMARK    4  A    between atoms: O_14  and  C_11 
REMARK    5  A    between atoms: C_17  and  O_12 
ROOT
ATOM      1  C   UNL d   1     -57.409 -98.785 -44.341  0.00  0.00     0.088 A 
ATOM      2  C   UNL d   1     -57.647 -98.809 -43.552  0.00  0.00     0.105 A 
ATOM      3  C   UNL d   1     -56.588 -98.788 -44.375  0.00  0.00     0.032 A 
ATOM      4  O   UNL d   1     -56.954 -98.827 -43.091  0.00  0.00    -0.307 OA
ATOM      5  C   UNL d   1     -56.307 -98.814 -43.601  0.00  0.00     0.100 A 
ATOM      6  C   UNL d   1     -56.065 -98.771 -45.001  0.00  0.00     0.026 A 
ATOM      7  C   UNL d   1     -55.490 -98.822 -43.461  0.00  0.00     0.027 A 
ATOM      8  C   UNL d   1     -55.248 -98.779 -44.861  0.00  0.00     0.094 A 
ATOM      9  C   UNL d   1     -54.967 -98.805 -44.088  0.00  0.00     0.026 A 
ENDROOT
BRANCH   2  10
ATOM     10  C   UNL d   1     -58.415 -98.815 -43.258  0.00  0.00     0.023 A 
ATOM     11  C   UNL d   1     -59.069 -98.865 -43.780  0.00  0.00     0.002 A 
ATOM     12  C   UNL d   1     -59.845 -98.870 -43.468  0.00  0.00     0.000 A 
ATOM     13  C   UNL d   1     -59.959 -98.824 -42.637  0.00  0.00     0.000 A 
ATOM     14  C   UNL d   1     -59.311 -98.775 -42.140  0.00  0.00     0.000 A 
ATOM     15  C   UNL d   1     -58.549 -98.770 -42.447  0.00  0.00     0.002 A 
ENDBRANCH   2  10
BRANCH   1  16
ATOM     16  C   UNL d   1     -58.161 -98.770 -44.692  0.00  0.00     0.302 C 
ATOM     17  O   UNL d   1     -58.834 -98.757 -44.224  0.00  0.00    -0.259 OA
BRANCH  16  18
ATOM     18  O   UNL d   1     -58.243 -98.768 -45.517  0.00  0.00    -0.271 OA
BRANCH  18  19
ATOM     19  C   UNL d   1     -58.993 -98.838 -45.873  0.00  0.00     0.126 C 
ATOM     20  C   UNL d   1     -59.053 -98.995 -46.689  0.00  0.00     0.029 C 
ENDBRANCH  18  19
ENDBRANCH  16  18
ENDBRANCH   1  16
BRANCH   8  21
ATOM     21  O   UNL d   1     -54.722 -98.761 -45.504  0.00  0.00    -0.328 OA
ATOM     22  C   UNL d   1     -54.805 -99.317 -46.131  0.00  0.00     0.181 C 
ENDBRANCH   8  21
TORSDOF 5
ENDMDL
MODEL 2
REMARK VINA RESULT:      38.5      0.872      2.447
REMARK  5 active torsions:
REMARK  status: ('A' for Active; 'I' for Inactive)
REMARK    1  A    between atoms: C_6  and  C_1 
REMARK    2  A    between atoms: C_7  and  C_2 
REMARK    3  A    between atoms: O_12  and  C_6 
REMARK    4  A    between atoms: O_14  and  C_11 
REMARK    5  A    between atoms: C_17  and  O_12 
ROOT
ATOM      1  C   UNL d   1     -57.602 -98.838 -44.098  0.00  0.00     0.088 A 
ATOM      2  C   UNL d   1     -57.757 -98.835 -44.908  0.00  0.00     0.105 A 
ATOM      3  C   UNL d   1     -56.789 -98.813 -43.980  0.00  0.00     0.032 A 
ATOM      4  O   UNL d   1     -57.021 -98.806 -45.295  0.00  0.00    -0.307 OA
ATOM      5  C   UNL d   1     -56.430 -98.793 -44.720  0.00  0.00     0.100 A 
ATOM      6  C   UNL d   1     -56.335 -98.805 -43.302  0.00  0.00     0.026 A 
ATOM      7  C   UNL d   1     -55.603 -98.765 -44.774  0.00  0.00     0.027 A 
ATOM      8  C   UNL d   1     -55.508 -98.777 -43.357  0.00  0.00     0.094 A 
ATOM      9  C   UNL d   1     -55.149 -98.757 -44.097  0.00  0.00     0.026 A 
ENDROOT
BRANCH   2  10
ATOM     10  C   UNL d   1     -58.490 -98.855 -45.280  0.00  0.00     0.023 A 
ATOM     11  C   UNL d   1     -59.194 -98.756 -44.836  0.00  0.00     0.002 A 
ATOM     12  C   UNL d   1     -59.933 -98.779 -45.227  0.00  0.00     0.000 A 
ATOM     13  C   UNL d   1     -59.961 -98.900 -46.058  0.00  0.00     0.000 A 
ATOM     14  C   UNL d   1     -59.265 -98.995 -46.477  0.00  0.00     0.000 A 
ATOM     15  C   UNL d   1     -58.539 -98.973 -46.093  0.00  0.00     0.002 A 
ENDBRANCH   2  10
BRANCH   1  16
ATOM     16  C   UNL d   1     -58.386 -98.867 -43.827  0.00  0.00     0.302 C 
ATOM     17  O   UNL d   1     -59.008 -98.759 -44.351  0.00  0.00    -0.259 OA
BRANCH  16  18
ATOM     18  O   UNL d   1     -58.552 -99.005 -43.027  0.00  0.00    -0.271 OA
BRANCH  18  19
ATOM     19  C   UNL d   1     -59.332 -98.956 -42.736  0.00  0.00     0.126 C 
ATOM     20  C   UNL d   1     -59.466 -98.760 -41.938  0.00  0.00     0.029 C 
ENDBRANCH  18  19
ENDBRANCH  16  18
ENDBRANCH   1  16
BRANCH   8  21
ATOM     21  O   UNL d   1     -55.052 -98.770 -42.662  0.00  0.00    -0.328 OA
ATOM     22  C   UNL d   1     -55.069 -99.430 -42.140  0.00  0.00     0.181 C 
ENDBRANCH   8  21
TORSDOF 5
ENDMDL
