MODEL 1
REMARK VINA RESULT:      80.9      0.000      0.000
REMARK  5 active torsions:
REMARK  status: ('A' for Active; 'I' for Inactive)
REMARK    1  A    between atoms: C_12  and  C_3 
REMARK    2  A    between atoms: C_14  and  N_5 
REMARK    3  A    between atoms: C_11  and  C_6 
REMARK    4  A    between atoms: O_25  and  C_12 
REMARK    5  A    between atoms: C_24  and  C_14 
ROOT
ATOM      1  C   UNL d   1     -51.189  26.135  33.610  0.00  0.00     0.080 A 
ATOM      2  C   UNL d   1     -51.334  25.324  33.525  0.00  0.00     0.267 A 
ATOM      3  C   UNL d   1     -50.276  27.226  33.792  0.00  0.00     0.106 A 
ATOM      4  C   UNL d   1     -51.821  26.676  33.597  0.00  0.00     0.108 A 
ATOM      5  N   UNL d   1     -52.114  25.051  33.428  0.00  0.00    -0.271 N 
ATOM      6  C   UNL d   1     -50.421  26.415  33.707  0.00  0.00     0.015 A 
ATOM      7  C   UNL d   1     -50.904  27.758  33.779  0.00  0.00     0.208 A 
ATOM      8  O   UNL d   1     -51.687  27.489  33.681  0.00  0.00    -0.288 OA
ATOM      9  C   UNL d   1     -52.595  26.403  33.500  0.00  0.00     0.043 A 
ATOM     10  C   UNL d   1     -52.746  25.592  33.415  0.00  0.00     0.069 A 
ATOM     11  O   UNL d   1     -50.708  24.788  33.537  0.00  0.00    -0.267 OA
ATOM     12  N   UNL d   1     -50.763  28.572  33.863  0.00  0.00    -0.121 N 
ATOM     13  C   UNL d   1     -53.516  25.323  33.319  0.00  0.00     0.019 C 
ENDROOT
BRANCH   6  14
ATOM     14  C   UNL d   1     -49.791  25.884  33.720  0.00  0.00     0.001 A 
ATOM     15  C   UNL d   1     -49.920  25.095  33.509  0.00  0.00     0.012 A 
ATOM     16  C   UNL d   1     -49.291  24.562  33.521  0.00  0.00     0.068 A 
ATOM     17 CL   UNL d   1     -49.416  23.778  33.312  0.00  0.00    -0.082 Cl
ATOM     18  C   UNL d   1     -48.539  24.812  33.742  0.00  0.00     0.068 A 
ATOM     19  C   UNL d   1     -48.419  25.611  33.954  0.00  0.00     0.012 A 
ATOM     20 CL   UNL d   1     -47.909  24.283  33.756  0.00  0.00    -0.082 Cl
ATOM     21  C   UNL d   1     -49.050  26.141  33.940  0.00  0.00     0.001 A 
ENDBRANCH   6  14
BRANCH   3  22
ATOM     22  C   UNL d   1     -49.511  27.500  33.888  0.00  0.00     0.299 C 
ATOM     23  O   UNL d   1     -48.924  27.290  33.349  0.00  0.00    -0.259 OA
BRANCH  22  24
ATOM     24  O   UNL d   1     -49.321  27.988  34.523  0.00  0.00    -0.296 OA
ATOM     25  C   UNL d   1     -48.838  28.650  34.412  0.00  0.00     0.185 C 
ENDBRANCH  22  24
ENDBRANCH   3  22
BRANCH   5  26
ATOM     26  C   UNL d   1     -52.265  24.252  33.343  0.00  0.00     0.108 C 
BRANCH  26  27
ATOM     27  C   UNL d   1     -52.919  23.913  33.707  0.00  0.00     0.118 A 
ATOM     28  O   UNL d   1     -53.056  23.868  34.509  0.00  0.00    -0.304 OA
ATOM     29  C   UNL d   1     -53.774  23.486  34.629  0.00  0.00     0.123 A 
ATOM     30  C   UNL d   1     -54.090  23.289  33.892  0.00  0.00     0.029 A 
ATOM     31  C   UNL d   1     -53.555  23.557  33.320  0.00  0.00     0.028 A 
ENDBRANCH  26  27
ENDBRANCH   5  26
TORSDOF 5
ENDMDL
