MODEL 1
REMARK VINA RESULT:     129.4      0.000      0.000
REMARK  3 active torsions:
REMARK  status: ('A' for Active; 'I' for Inactive)
REMARK    1  A    between atoms: C_11  and  N_3 
REMARK    2  A    between atoms: C_10  and  N_6 
REMARK    3  A    between atoms: C_9  and  C_7 
ROOT
ATOM      1  C   UNL d   1      61.111  45.972  50.802  0.00  0.00     0.106 A 
ATOM      2  C   UNL d   1      61.105  46.092  51.635  0.00  0.00     0.186 A 
ATOM      3  N   UNL d   1      60.841  47.279  51.039  0.00  0.00    -0.240 N 
ATOM      4  C   UNL d   1      60.937  46.901  51.749  0.00  0.00     0.292 A 
ATOM      5  C   UNL d   1      60.951  46.688  50.441  0.00  0.00     0.271 A 
ATOM      6  N   UNL d   1      61.370  44.809  51.427  0.00  0.00    -0.211 N 
ATOM      7  C   UNL d   1      61.276  45.176  50.686  0.00  0.00     0.117 A 
ATOM      8  O   UNL d   1      61.261  45.393  51.999  0.00  0.00    -0.223 OA
ATOM      9  O   UNL d   1      60.901  46.838  49.631  0.00  0.00    -0.266 OA
ATOM     10  O   UNL d   1      60.877  47.272  52.504  0.00  0.00    -0.264 OA
ENDROOT
BRANCH   6  11
ATOM     11  C   UNL d   1      61.541  44.013  51.564  0.00  0.00     0.088 A 
ATOM     12  C   UNL d   1      60.994  43.550  51.991  0.00  0.00     0.021 A 
ATOM     13  C   UNL d   1      61.147  42.750  52.139  0.00  0.00     0.013 A 
ATOM     14  C   UNL d   1      61.862  42.401  51.855  0.00  0.00     0.058 A 
ATOM     15  C   UNL d   1      62.405  42.874  51.427  0.00  0.00     0.013 A 
ATOM     16 CL   UNL d   1      62.028  41.622  51.989  0.00  0.00    -0.082 Cl
ATOM     17  C   UNL d   1      62.236  43.669  51.289  0.00  0.00     0.021 A 
ENDBRANCH   6  11
BRANCH   7  18
ATOM     18  C   UNL d   1      61.337  44.803  49.956  0.00  0.00     0.118 A 
ATOM     19  O   UNL d   1      60.753  44.394  49.536  0.00  0.00    -0.304 OA
ATOM     20  C   UNL d   1      61.079  44.116  48.828  0.00  0.00     0.123 A 
ATOM     21  C   UNL d   1      61.880  44.369  48.829  0.00  0.00     0.029 A 
ATOM     22  C   UNL d   1      62.016  44.776  49.508  0.00  0.00     0.028 A 
ENDBRANCH   7  18
BRANCH   3  23
ATOM     23  C   UNL d   1      60.672  48.082  51.055  0.00  0.00     0.070 A 
ATOM     24  C   UNL d   1      61.270  48.647  51.165  0.00  0.00     0.018 A 
ATOM     25  C   UNL d   1      61.084  49.450  51.179  0.00  0.00     0.002 A 
ATOM     26  C   UNL d   1      60.329  49.707  51.086  0.00  0.00     0.000 A 
ATOM     27  C   UNL d   1      59.714  49.137  50.973  0.00  0.00     0.002 A 
ATOM     28  C   UNL d   1      59.880  48.339  50.957  0.00  0.00     0.018 A 
ENDBRANCH   3  23
TORSDOF 3
ENDMDL
