MODEL 1
REMARK VINA RESULT:      58.8      0.000      0.000
REMARK  6 active torsions:
REMARK  status: ('A' for Active; 'I' for Inactive)
REMARK    1  A    between atoms: C_12  and  N_1 
REMARK    2  A    between atoms: C_9  and  C_23 
REMARK       I    between atoms: N_10  and  C_9 
REMARK    3  A    between atoms: C_13  and  N_10 
REMARK    4  A    between atoms: C_22  and  C_12 
REMARK    5  A    between atoms: O_21  and  C_15 
REMARK    6  A    between atoms: C_23  and  C_22 
ROOT
ATOM      1  C   UNL d   1      59.869  49.704  50.332  0.00  0.00     0.085 C 
ENDROOT
BRANCH   1   2
ATOM      2  N   UNL d   1      59.045  49.705  50.427  0.00  0.00    -0.249 N 
ATOM      3  C   UNL d   1      58.734  49.704  51.192  0.00  0.00     0.208 A 
ATOM      4  N   UNL d   1      57.910  49.705  51.299  0.00  0.00    -0.218 NA
ATOM      5  S   UNL d   1      59.257  49.703  51.839  0.00  0.00    -0.038 SA
ATOM      6  C   UNL d   1      57.402  49.706  50.656  0.00  0.00     0.088 A 
ATOM      7  C   UNL d   1      57.714  49.706  49.887  0.00  0.00     0.074 A 
ATOM      8  C   UNL d   1      56.588  49.706  50.763  0.00  0.00     0.019 A 
ATOM      9  C   UNL d   1      58.529  49.706  49.774  0.00  0.00     0.268 A 
ATOM     10  C   UNL d   1      57.207  49.707  49.238  0.00  0.00     0.006 A 
ATOM     11  O   UNL d   1      58.840  49.706  49.010  0.00  0.00    -0.267 OA
ATOM     12  C   UNL d   1      56.390  49.708  49.350  0.00  0.00     0.000 A 
ATOM     13  C   UNL d   1      56.080  49.707  50.114  0.00  0.00     0.002 A 
ENDBRANCH   1   2
BRANCH   1  14
ATOM     14  C   UNL d   1      60.346  49.330  50.899  0.00  0.00     0.024 C 
BRANCH  14  15
ATOM     15  C   UNL d   1      61.103  49.060  50.689  0.00  0.00     0.064 C 
BRANCH  15  16
ATOM     16  C   UNL d   1      61.239  48.243  50.588  0.00  0.00     0.279 C 
ATOM     17  N   UNL d   1      61.437  47.947  49.853  0.00  0.00    -0.208 NA
ATOM     18  O   UNL d   1      61.172  47.727  51.244  0.00  0.00    -0.265 OA
BRANCH  17  19
ATOM     19  C   UNL d   1      61.573  47.125  49.752  0.00  0.00     0.085 A 
ATOM     20  C   UNL d   1      62.289  46.847  49.446  0.00  0.00     0.021 A 
ATOM     21  C   UNL d   1      62.412  46.037  49.351  0.00  0.00     0.026 A 
ATOM     22  C   UNL d   1      61.816  45.502  49.564  0.00  0.00     0.094 A 
ATOM     23  C   UNL d   1      61.100  45.777  49.870  0.00  0.00     0.026 A 
ATOM     24  C   UNL d   1      60.982  46.600  49.963  0.00  0.00     0.021 A 
BRANCH  22  25
ATOM     25  O   UNL d   1      61.930  44.690  49.472  0.00  0.00    -0.328 OA
ATOM     26  C   UNL d   1      62.432  44.291  49.987  0.00  0.00     0.181 C 
ENDBRANCH  22  25
ENDBRANCH  17  19
ENDBRANCH  15  16
ENDBRANCH  14  15
ENDBRANCH   1  14
TORSDOF 6
ENDMDL
