MODEL 1
REMARK VINA RESULT:      43.0      0.000      0.000
REMARK  3 active torsions:
REMARK  status: ('A' for Active; 'I' for Inactive)
REMARK    1  A    between atoms: C_2  and  C_1 
REMARK       I    between atoms: N_7  and  C_2 
REMARK    2  A    between atoms: C_9  and  N_7 
REMARK    3  A    between atoms: O_16  and  C_10 
ROOT
ATOM      1  C   UNL d   1      58.716  49.556  51.943  0.00  0.00     0.280 C 
ATOM      2  N   UNL d   1      59.489  49.374  52.163  0.00  0.00    -0.208 NA
ATOM      3  O   UNL d   1      58.148  49.706  52.530  0.00  0.00    -0.265 OA
ENDROOT
BRANCH   1   4
ATOM      4  C   UNL d   1      58.506  49.590  51.146  0.00  0.00     0.065 A 
ATOM      5  C   UNL d   1      57.741  49.626  50.847  0.00  0.00     0.011 A 
ATOM      6  C   UNL d   1      57.797  49.652  50.028  0.00  0.00     0.030 A 
ATOM      7  C   UNL d   1      56.998  49.639  51.213  0.00  0.00     0.001 A 
ATOM      8  C   UNL d   1      57.109  49.691  49.565  0.00  0.00     0.006 A 
ATOM      9  S   UNL d   1      58.591  49.632  49.821  0.00  0.00    -0.086 SA
ATOM     10  C   UNL d   1      56.378  49.704  49.924  0.00  0.00     0.001 A 
ATOM     11  C   UNL d   1      56.319  49.678  50.749  0.00  0.00     0.000 A 
ATOM     12  C   UNL d   1      59.024  49.594  50.523  0.00  0.00     0.040 A 
ENDBRANCH   1   4
BRANCH   2  13
ATOM     13  C   UNL d   1      60.054  49.226  51.578  0.00  0.00     0.085 A 
ATOM     14  C   UNL d   1      60.081  49.700  50.907  0.00  0.00     0.021 A 
ATOM     15  C   UNL d   1      60.650  49.553  50.316  0.00  0.00     0.026 A 
ATOM     16  C   UNL d   1      61.186  48.932  50.402  0.00  0.00     0.094 A 
ATOM     17  C   UNL d   1      61.154  48.458  51.079  0.00  0.00     0.026 A 
ATOM     18  C   UNL d   1      60.591  48.604  51.664  0.00  0.00     0.021 A 
BRANCH  16  19
ATOM     19  O   UNL d   1      61.749  48.797  49.802  0.00  0.00    -0.328 OA
ATOM     20  C   UNL d   1      62.085  48.049  49.703  0.00  0.00     0.181 C 
ENDBRANCH  16  19
ENDBRANCH   2  13
TORSDOF 3
ENDMDL
MODEL 2
REMARK VINA RESULT:      43.6      1.369      2.059
REMARK  3 active torsions:
REMARK  status: ('A' for Active; 'I' for Inactive)
REMARK    1  A    between atoms: C_2  and  C_1 
REMARK       I    between atoms: N_7  and  C_2 
REMARK    2  A    between atoms: C_9  and  N_7 
REMARK    3  A    between atoms: O_16  and  C_10 
ROOT
ATOM      1  C   UNL d   1      59.567  49.413  49.712  0.00  0.00     0.280 C 
ATOM      2  N   UNL d   1      60.366  49.370  49.909  0.00  0.00    -0.208 NA
ATOM      3  O   UNL d   1      59.339  49.369  48.915  0.00  0.00    -0.265 OA
ENDROOT
BRANCH   1   4
ATOM      4  C   UNL d   1      58.996  49.499  50.301  0.00  0.00     0.065 A 
ATOM      5  C   UNL d   1      58.183  49.543  50.186  0.00  0.00     0.011 A 
ATOM      6  C   UNL d   1      57.833  49.627  50.925  0.00  0.00     0.030 A 
ATOM      7  C   UNL d   1      57.713  49.518  49.505  0.00  0.00     0.001 A 
ATOM      8  C   UNL d   1      57.007  49.687  50.990  0.00  0.00     0.006 A 
ATOM      9  S   UNL d   1      58.425  49.635  51.493  0.00  0.00    -0.086 SA
ATOM     10  C   UNL d   1      56.545  49.662  50.320  0.00  0.00     0.001 A 
ATOM     11  C   UNL d   1      56.895  49.578  49.575  0.00  0.00     0.000 A 
ATOM     12  C   UNL d   1      59.145  49.555  51.096  0.00  0.00     0.040 A 
ENDBRANCH   1   4
BRANCH   2  13
ATOM     13  C   UNL d   1      60.592  49.414  50.704  0.00  0.00     0.085 A 
ATOM     14  C   UNL d   1      61.390  49.444  50.899  0.00  0.00     0.021 A 
ATOM     15  C   UNL d   1      61.621  49.488  51.699  0.00  0.00     0.026 A 
ATOM     16  C   UNL d   1      61.051  49.502  52.294  0.00  0.00     0.094 A 
ATOM     17  C   UNL d   1      60.250  49.472  52.091  0.00  0.00     0.026 A 
ATOM     18  C   UNL d   1      60.021  49.428  51.300  0.00  0.00     0.021 A 
BRANCH  16  19
ATOM     19  O   UNL d   1      61.297  49.547  53.090  0.00  0.00    -0.328 OA
ATOM     20  C   UNL d   1      60.752  49.708  53.689  0.00  0.00     0.181 C 
ENDBRANCH  16  19
ENDBRANCH   2  13
TORSDOF 3
ENDMDL
