MODEL 1
REMARK VINA RESULT:      -3.5      0.000      0.000
REMARK  5 active torsions:
REMARK  status: ('A' for Active; 'I' for Inactive)
REMARK    1  A    between atoms: N_2  and  C_1 
REMARK    2  A    between atoms: C_8  and  C_1 
REMARK    3  A    between atoms: O_5  and  N_2 
REMARK    4  A    between atoms: C_3  and  O_5 
REMARK    5  A    between atoms: C_4  and  C_3 
ROOT
ATOM      1  C   UNL d   1      32.988  18.939 -23.253  0.00  0.00     0.319 C 
ATOM      2  O   UNL d   1      33.241  19.461 -23.946  0.00  0.00    -0.257 OA
ENDROOT
BRANCH   1   3
ATOM      3  O   UNL d   1      32.991  19.286 -22.410  0.00  0.00    -0.168 OA
BRANCH   3   4
ATOM      4  N   UNL d   1      33.024  20.102 -22.297  0.00  0.00    -0.100 NA
BRANCH   4   5
ATOM      5  C   UNL d   1      33.029  20.399 -21.527  0.00  0.00     0.228 C 
ATOM      6  N   UNL d   1      33.239  19.910 -20.887  0.00  0.00    -0.123 N 
BRANCH   5   7
ATOM      7  C   UNL d   1      32.823  21.188 -21.402  0.00  0.00     0.121 A 
ATOM      8  N   UNL d   1      33.218  21.764 -21.835  0.00  0.00    -0.241 NA
ATOM      9  C   UNL d   1      33.020  22.573 -21.720  0.00  0.00     0.099 A 
ATOM     10  C   UNL d   1      32.431  22.772 -21.174  0.00  0.00     0.021 A 
ATOM     11  C   UNL d   1      32.048  22.184 -20.751  0.00  0.00     0.003 A 
ATOM     12  C   UNL d   1      32.247  21.397 -20.870  0.00  0.00     0.022 A 
ENDBRANCH   5   7
ENDBRANCH   4   5
ENDBRANCH   3   4
ENDBRANCH   1   3
BRANCH   1  13
ATOM     13  C   UNL d   1      32.754  18.152 -23.373  0.00  0.00     0.065 A 
ATOM     14  C   UNL d   1      32.014  18.009 -23.707  0.00  0.00     0.005 A 
ATOM     15  C   UNL d   1      31.775  17.228 -23.830  0.00  0.00     0.000 A 
ATOM     16  C   UNL d   1      31.032  17.060 -24.166  0.00  0.00     0.000 C 
ATOM     17  C   UNL d   1      32.264  16.608 -23.623  0.00  0.00     0.000 A 
ATOM     18  C   UNL d   1      32.998  16.760 -23.291  0.00  0.00     0.000 A 
ATOM     19  C   UNL d   1      32.039  15.811 -23.739  0.00  0.00     0.000 C 
ATOM     20  C   UNL d   1      33.241  17.534 -23.167  0.00  0.00     0.005 A 
ENDBRANCH   1  13
TORSDOF 5
ENDMDL
MODEL 2
REMARK VINA RESULT:      -3.2      1.058      4.870
REMARK  5 active torsions:
REMARK  status: ('A' for Active; 'I' for Inactive)
REMARK    1  A    between atoms: N_2  and  C_1 
REMARK    2  A    between atoms: C_8  and  C_1 
REMARK    3  A    between atoms: O_5  and  N_2 
REMARK    4  A    between atoms: C_3  and  O_5 
REMARK    5  A    between atoms: C_4  and  C_3 
ROOT
ATOM      1  C   UNL d   1      33.018  20.112 -21.844  0.00  0.00     0.319 C 
ATOM      2  O   UNL d   1      33.241  19.615 -21.123  0.00  0.00    -0.257 OA
ENDROOT
BRANCH   1   3
ATOM      3  O   UNL d   1      32.912  19.702 -22.651  0.00  0.00    -0.168 OA
BRANCH   3   4
ATOM      4  N   UNL d   1      32.869  18.880 -22.697  0.00  0.00    -0.100 NA
BRANCH   4   5
ATOM      5  C   UNL d   1      32.781  18.526 -23.437  0.00  0.00     0.228 C 
ATOM      6  N   UNL d   1      32.913  18.963 -24.134  0.00  0.00    -0.123 N 
BRANCH   5   7
ATOM      7  C   UNL d   1      32.561  17.732 -23.476  0.00  0.00     0.121 A 
ATOM      8  N   UNL d   1      33.141  17.163 -23.351  0.00  0.00    -0.241 NA
ATOM      9  C   UNL d   1      32.934  16.349 -23.386  0.00  0.00     0.099 A 
ATOM     10  C   UNL d   1      32.150  16.138 -23.547  0.00  0.00     0.021 A 
ATOM     11  C   UNL d   1      31.585  16.719 -23.670  0.00  0.00     0.003 A 
ATOM     12  C   UNL d   1      31.796  17.511 -23.633  0.00  0.00     0.022 A 
ENDBRANCH   5   7
ENDBRANCH   4   5
ENDBRANCH   3   4
ENDBRANCH   1   3
BRANCH   1  13
ATOM     13  C   UNL d   1      32.911  20.933 -21.781  0.00  0.00     0.065 A 
ATOM     14  C   UNL d   1      32.459  21.222 -21.155  0.00  0.00     0.005 A 
ATOM     15  C   UNL d   1      32.348  22.037 -21.086  0.00  0.00     0.000 A 
ATOM     16  C   UNL d   1      31.895  22.353 -20.462  0.00  0.00     0.000 C 
ATOM     17  C   UNL d   1      32.679  22.548 -21.630  0.00  0.00     0.000 A 
ATOM     18  C   UNL d   1      33.126  22.251 -22.249  0.00  0.00     0.000 A 
ATOM     19  C   UNL d   1      32.577  23.376 -21.577  0.00  0.00     0.000 C 
ATOM     20  C   UNL d   1      33.241  21.442 -22.323  0.00  0.00     0.005 A 
ENDBRANCH   1  13
TORSDOF 5
ENDMDL
MODEL 3
REMARK VINA RESULT:      -2.0      1.561      4.647
REMARK  5 active torsions:
REMARK  status: ('A' for Active; 'I' for Inactive)
REMARK    1  A    between atoms: N_2  and  C_1 
REMARK    2  A    between atoms: C_8  and  C_1 
REMARK    3  A    between atoms: O_5  and  N_2 
REMARK    4  A    between atoms: C_3  and  O_5 
REMARK    5  A    between atoms: C_4  and  C_3 
ROOT
ATOM      1  C   UNL d   1      33.091  19.546 -23.286  0.00  0.00     0.319 C 
ATOM      2  O   UNL d   1      33.226  19.998 -24.057  0.00  0.00    -0.257 OA
ENDROOT
BRANCH   1   3
ATOM      3  O   UNL d   1      32.941  18.648 -23.318  0.00  0.00    -0.168 OA
BRANCH   3   4
ATOM      4  N   UNL d   1      32.522  18.319 -23.947  0.00  0.00    -0.100 NA
BRANCH   4   5
ATOM      5  C   UNL d   1      32.501  17.497 -24.027  0.00  0.00     0.228 C 
ATOM      6  N   UNL d   1      33.203  17.051 -23.987  0.00  0.00    -0.123 N 
BRANCH   5   7
ATOM      7  C   UNL d   1      31.775  17.126 -24.147  0.00  0.00     0.121 A 
ATOM      8  N   UNL d   1      31.376  17.274 -24.851  0.00  0.00    -0.241 NA
ATOM      9  C   UNL d   1      30.635  16.904 -24.990  0.00  0.00     0.099 A 
ATOM     10  C   UNL d   1      30.320  16.398 -24.415  0.00  0.00     0.021 A 
ATOM     11  C   UNL d   1      30.732  16.263 -23.719  0.00  0.00     0.003 A 
ATOM     12  C   UNL d   1      31.456  16.629 -23.592  0.00  0.00     0.022 A 
ENDBRANCH   5   7
ENDBRANCH   4   5
ENDBRANCH   3   4
ENDBRANCH   1   3
BRANCH   1  13
ATOM     13  C   UNL d   1      33.103  19.937 -22.554  0.00  0.00     0.065 A 
ATOM     14  C   UNL d   1      32.981  20.752 -22.542  0.00  0.00     0.005 A 
ATOM     15  C   UNL d   1      32.991  21.146 -21.817  0.00  0.00     0.000 A 
ATOM     16  C   UNL d   1      32.869  21.970 -21.780  0.00  0.00     0.000 C 
ATOM     17  C   UNL d   1      33.120  20.736 -21.124  0.00  0.00     0.000 A 
ATOM     18  C   UNL d   1      33.241  19.926 -21.146  0.00  0.00     0.000 A 
ATOM     19  C   UNL d   1      33.134  21.118 -20.380  0.00  0.00     0.000 C 
ATOM     20  C   UNL d   1      33.232  19.528 -21.863  0.00  0.00     0.005 A 
ENDBRANCH   1  13
TORSDOF 5
ENDMDL
