MODEL 1
REMARK VINA RESULT:      12.6      0.000      0.000
REMARK  2 active torsions:
REMARK  status: ('A' for Active; 'I' for Inactive)
REMARK       I    between atoms: C_2  and  N_1 
REMARK       I    between atoms: C_3  and  N_1 
REMARK       I    between atoms: N_4  and  C_2 
REMARK    1  A    between atoms: C_9  and  C_3 
REMARK    2  A    between atoms: C_5  and  N_4 
ROOT
ATOM      1  N   UNL d   1      45.830 -17.278  44.794  0.00  0.00    -0.140 NA
ATOM      2  C   UNL d   1      45.972 -18.055  44.567  0.00  0.00     0.424 C 
ATOM      3  C   UNL d   1      45.846 -16.668  44.244  0.00  0.00     0.284 C 
ATOM      4  N   UNL d   1      46.134 -18.258  43.795  0.00  0.00    -0.329 NA
ATOM      5  O   UNL d   1      46.000 -18.790  44.955  0.00  0.00    -0.228 OA
ATOM      6  O   UNL d   1      46.007 -16.839  43.450  0.00  0.00    -0.265 OA
ENDROOT
BRANCH   3   7
ATOM      7  C   UNL d   1      45.703 -15.892  44.474  0.00  0.00     0.058 A 
ATOM      8  C   UNL d   1      46.322 -15.356  44.500  0.00  0.00     0.005 A 
ATOM      9  C   UNL d   1      46.188 -14.576  44.730  0.00  0.00     0.000 A 
ATOM     10  C   UNL d   1      45.420 -14.333  44.937  0.00  0.00     0.000 A 
ATOM     11  C   UNL d   1      44.802 -14.868  44.911  0.00  0.00     0.000 A 
ATOM     12  C   UNL d   1      44.941 -15.656  44.678  0.00  0.00     0.005 A 
ENDBRANCH   3   7
BRANCH   4  13
ATOM     13  C   UNL d   1      46.305 -18.578  43.060  0.00  0.00     0.219 A 
ATOM     14  N   UNL d   1      46.428 -18.085  42.415  0.00  0.00    -0.214 NA
ATOM     15  C   UNL d   1      46.601 -18.415  41.672  0.00  0.00     0.102 A 
ATOM     16  C   UNL d   1      46.647 -19.236  41.591  0.00  0.00     0.021 A 
ATOM     17  C   UNL d   1      46.524 -19.728  42.235  0.00  0.00     0.006 A 
ATOM     18  C   UNL d   1      46.351 -19.402  42.975  0.00  0.00     0.052 A 
ENDBRANCH   4  13
TORSDOF 2
ENDMDL
MODEL 2
REMARK VINA RESULT:      14.8      1.756      4.328
REMARK  2 active torsions:
REMARK  status: ('A' for Active; 'I' for Inactive)
REMARK       I    between atoms: C_2  and  N_1 
REMARK       I    between atoms: C_3  and  N_1 
REMARK       I    between atoms: N_4  and  C_2 
REMARK    1  A    between atoms: C_9  and  C_3 
REMARK    2  A    between atoms: C_5  and  N_4 
ROOT
ATOM      1  N   UNL d   1      44.848 -16.046  44.608  0.00  0.00    -0.140 NA
ATOM      2  C   UNL d   1      44.560 -15.284  44.702  0.00  0.00     0.424 C 
ATOM      3  C   UNL d   1      45.612 -16.179  44.336  0.00  0.00     0.284 C 
ATOM      4  N   UNL d   1      45.011 -14.626  44.534  0.00  0.00    -0.329 NA
ATOM      5  O   UNL d   1      43.842 -14.948  44.955  0.00  0.00    -0.228 OA
ATOM      6  O   UNL d   1      46.098 -15.534  44.156  0.00  0.00    -0.265 OA
ENDROOT
BRANCH   3   7
ATOM      7  C   UNL d   1      45.897 -16.944  44.243  0.00  0.00     0.058 A 
ATOM      8  C   UNL d   1      46.044 -17.406  44.903  0.00  0.00     0.005 A 
ATOM      9  C   UNL d   1      46.330 -18.175  44.818  0.00  0.00     0.000 A 
ATOM     10  C   UNL d   1      46.470 -18.481  44.059  0.00  0.00     0.000 A 
ATOM     11  C   UNL d   1      46.323 -18.020  43.398  0.00  0.00     0.000 A 
ATOM     12  C   UNL d   1      46.034 -17.244  43.488  0.00  0.00     0.005 A 
ENDBRANCH   3   7
BRANCH   4  13
ATOM     13  C   UNL d   1      45.366 -13.899  44.400  0.00  0.00     0.219 A 
ATOM     14  N   UNL d   1      45.186 -13.473  43.722  0.00  0.00    -0.214 NA
ATOM     15  C   UNL d   1      45.550 -12.737  43.591  0.00  0.00     0.102 A 
ATOM     16  C   UNL d   1      46.087 -12.443  44.145  0.00  0.00     0.021 A 
ATOM     17  C   UNL d   1      46.266 -12.868  44.822  0.00  0.00     0.006 A 
ATOM     18  C   UNL d   1      45.906 -13.601  44.955  0.00  0.00     0.052 A 
ENDBRANCH   4  13
TORSDOF 2
ENDMDL
