MODEL 1
REMARK VINA RESULT:      42.0      0.000      0.000
REMARK  4 active torsions:
REMARK  status: ('A' for Active; 'I' for Inactive)
REMARK    1  A    between atoms: N_8  and  C_1 
REMARK    2  A    between atoms: O_11  and  C_2 
REMARK       I    between atoms: C_12  and  N_8 
REMARK    3  A    between atoms: C_16  and  O_11 
REMARK    4  A    between atoms: O_22  and  C_17 
ROOT
ATOM      1  C   UNL d   1     -56.142 -99.341 -44.257  0.00  0.00     0.272 A 
ATOM      2  C   UNL d   1     -55.384 -99.425 -44.389  0.00  0.00     0.284 A 
ATOM      3  C   UNL d   1     -57.727 -99.134 -44.081  0.00  0.00     0.207 A 
ATOM      4  C   UNL d   1     -57.086 -99.011 -44.795  0.00  0.00     0.220 A 
ATOM      5  O   UNL d   1     -56.026 -99.549 -43.671  0.00  0.00    -0.325 OA
ATOM      6  C   UNL d   1     -56.917 -99.230 -44.200  0.00  0.00     0.182 A 
ATOM      7  O   UNL d   1     -58.379 -98.900 -44.472  0.00  0.00    -0.327 OA
ATOM      8  C   UNL d   1     -58.814 -98.987 -43.977  0.00  0.00     0.188 A 
ATOM      9  O   UNL d   1     -58.176 -99.187 -43.685  0.00  0.00    -0.332 OA
ATOM     10  C   UNL d   1     -57.358 -99.309 -43.727  0.00  0.00     0.177 A 
ATOM     11  O   UNL d   1     -57.717 -98.950 -44.660  0.00  0.00    -0.290 OA
ATOM     12  C   UNL d   1     -59.346 -98.756 -44.419  0.00  0.00     0.061 C 
ATOM     13  C   UNL d   1     -59.309 -99.076 -43.445  0.00  0.00     0.061 C 
ENDROOT
BRANCH   2  14
ATOM     14  O   UNL d   1     -54.730 -99.659 -43.997  0.00  0.00    -0.303 OA
BRANCH  14  15
ATOM     15  C   UNL d   1     -54.725-100.398 -43.606  0.00  0.00     0.097 A 
ATOM     16  C   UNL d   1     -54.725-101.089 -44.053  0.00  0.00     0.026 A 
ATOM     17  C   UNL d   1     -54.720-101.828 -43.670  0.00  0.00     0.026 A 
ATOM     18  C   UNL d   1     -54.716-101.861 -42.838  0.00  0.00     0.094 A 
ATOM     19  C   UNL d   1     -54.716-101.158 -42.395  0.00  0.00     0.026 A 
ATOM     20  C   UNL d   1     -54.721-100.421 -42.781  0.00  0.00     0.026 A 
BRANCH  18  21
ATOM     21  O   UNL d   1     -54.711-102.600 -42.455  0.00  0.00    -0.328 OA
ATOM     22  C   UNL d   1     -54.757-102.641 -41.631  0.00  0.00     0.181 C 
ENDBRANCH  18  21
ENDBRANCH  14  15
ENDBRANCH   2  14
BRANCH   1  23
ATOM     23  N   UNL d   1     -55.700 -99.261 -44.733  0.00  0.00    -0.380 NA
ATOM     24  C   UNL d   1     -55.260 -99.181 -45.206  0.00  0.00     0.324 C 
ATOM     25  O   UNL d   1     -55.351 -99.462 -45.789  0.00  0.00    -0.251 OA
ATOM     26  C   UNL d   1     -54.722 -98.819 -45.102  0.00  0.00     0.082 C 
ENDBRANCH   1  23
TORSDOF 4
ENDMDL
