MODEL 1
REMARK VINA RESULT:      39.8      0.000      0.000
REMARK  4 active torsions:
REMARK  status: ('A' for Active; 'I' for Inactive)
REMARK    1  A    between atoms: N_2  and  S_1 
REMARK    2  A    between atoms: C_6  and  S_1 
REMARK    3  A    between atoms: O_17  and  C_12 
REMARK    4  A    between atoms: C_19  and  O_17 
ROOT
ATOM      1  S   UNL d   1     -54.851-101.452 -42.597  0.00  0.00     0.271 S 
ATOM      2  O   UNL d   1     -54.992-100.693 -42.289  0.00  0.00    -0.200 OA
ATOM      3  O   UNL d   1     -54.712-102.206 -42.902  0.00  0.00    -0.200 OA
ENDROOT
BRANCH   1   4
ATOM      4  N   UNL d   1     -54.886-101.146 -43.368  0.00  0.00    -0.232 N 
ATOM      5  C   UNL d   1     -54.978-101.586 -44.062  0.00  0.00     0.075 A 
ATOM      6  C   UNL d   1     -54.985-101.066 -44.701  0.00  0.00     0.020 A 
ATOM      7  C   UNL d   1     -55.050-102.409 -44.104  0.00  0.00     0.020 C 
ATOM      8  C   UNL d   1     -54.897-100.297 -44.400  0.00  0.00     0.018 A 
ATOM      9  C   UNL d   1     -54.837-100.352 -43.579  0.00  0.00     0.075 A 
ATOM     10  C   UNL d   1     -54.864 -99.560 -44.767  0.00  0.00     0.002 A 
ATOM     11  C   UNL d   1     -54.744 -99.666 -43.124  0.00  0.00     0.018 A 
ATOM     12  C   UNL d   1     -54.712 -98.933 -43.491  0.00  0.00     0.002 A 
ATOM     13  C   UNL d   1     -54.772 -98.875 -44.311  0.00  0.00     0.000 A 
ENDBRANCH   1   4
BRANCH   1  14
ATOM     14  C   UNL d   1     -54.816-101.756 -41.830  0.00  0.00     0.104 A 
ATOM     15  C   UNL d   1     -54.822-102.577 -41.711  0.00  0.00     0.015 A 
ATOM     16  C   UNL d   1     -54.787-102.879 -40.948  0.00  0.00     0.025 A 
ATOM     17  C   UNL d   1     -54.746-102.366 -40.294  0.00  0.00     0.100 A 
ATOM     18  C   UNL d   1     -54.741-101.547 -40.421  0.00  0.00     0.025 A 
ATOM     19  C   UNL d   1     -54.776-101.245 -41.185  0.00  0.00     0.015 A 
BRANCH  17  20
ATOM     20  O   UNL d   1     -54.711-102.669 -39.530  0.00  0.00    -0.305 OA
BRANCH  20  21
ATOM     21  C   UNL d   1     -55.318-102.517 -39.000  0.00  0.00     0.123 C 
ATOM     22  C   UNL d   1     -55.271-102.798 -38.228  0.00  0.00     0.029 C 
ENDBRANCH  20  21
ENDBRANCH  17  20
ENDBRANCH   1  14
TORSDOF 4
ENDMDL
