MODEL 1
REMARK VINA RESULT:      28.8      0.000      0.000
REMARK  7 active torsions:
REMARK  status: ('A' for Active; 'I' for Inactive)
REMARK    1  A    between atoms: C_13  and  N_1 
REMARK    2  A    between atoms: C_2  and  N_6 
REMARK    3  A    between atoms: C_8  and  C_5 
REMARK       I    between atoms: N_6  and  C_8 
REMARK    4  A    between atoms: S_20  and  C_9 
REMARK    5  A    between atoms: C_14  and  C_19 
REMARK    6  A    between atoms: C_19  and  C_23 
REMARK    7  A    between atoms: C_23  and  S_20 
ROOT
ATOM      1  N   UNL d   1      46.376 -17.335  44.499  0.00  0.00    -0.181 NA
ATOM      2  C   UNL d   1      45.929 -16.886  44.061  0.00  0.00     0.283 C 
ATOM      3  O   UNL d   1      45.480 -17.201  43.520  0.00  0.00    -0.265 OA
ENDROOT
BRANCH   2   4
ATOM      4  C   UNL d   1      45.932 -16.127  44.164  0.00  0.00     0.080 A 
ATOM      5  C   UNL d   1      45.466 -15.619  43.830  0.00  0.00     0.088 A 
ATOM      6  N   UNL d   1      45.654 -14.918  44.084  0.00  0.00    -0.273 N 
ATOM      7  C   UNL d   1      46.235 -14.994  44.575  0.00  0.00     0.265 A 
ATOM      8  C   UNL d   1      46.413 -15.744  44.628  0.00  0.00     0.067 A 
ATOM      9  O   UNL d   1      46.588 -14.418  44.954  0.00  0.00    -0.267 OA
BRANCH   6  10
ATOM     10  C   UNL d   1      45.287 -14.206  43.863  0.00  0.00     0.067 A 
ATOM     11  C   UNL d   1      44.477 -14.110  43.991  0.00  0.00     0.020 A 
ATOM     12  C   UNL d   1      44.121 -13.398  43.767  0.00  0.00     0.031 A 
ATOM     13  C   UNL d   1      44.560 -12.797  43.424  0.00  0.00     0.140 A 
ATOM     14  C   UNL d   1      45.373 -12.902  43.299  0.00  0.00     0.031 A 
ATOM     15  F   UNL d   1      44.197 -12.080  43.200  0.00  0.00    -0.204 F 
ATOM     16  C   UNL d   1      45.732 -13.598  43.516  0.00  0.00     0.020 A 
ENDBRANCH   6  10
ENDBRANCH   2   4
BRANCH   1  17
ATOM     17  C   UNL d   1      46.377 -18.098  44.400  0.00  0.00     0.219 A 
ATOM     18  S   UNL d   1      46.480 -18.468  43.732  0.00  0.00    -0.019 SA
ATOM     19  C   UNL d   1      46.441 -19.217  43.869  0.00  0.00     0.165 A 
ATOM     20  N   UNL d   1      46.313 -19.327  44.621  0.00  0.00    -0.133 NA
ATOM     21  N   UNL d   1      46.273 -18.622  44.954  0.00  0.00    -0.120 NA
BRANCH  19  22
ATOM     22  S   UNL d   1      46.641 -20.248  42.538  0.00  0.00    -0.059 SA
BRANCH  22  23
ATOM     23  C   UNL d   1      46.217 -20.114  41.842  0.00  0.00     0.042 C 
BRANCH  23  24
ATOM     24  C   UNL d   1      46.592 -19.759  41.193  0.00  0.00     0.058 C 
BRANCH  24  25
ATOM     25  C   UNL d   1      46.261 -19.079  40.864  0.00  0.00     0.204 A 
ATOM     26  O   UNL d   1      45.490 -18.799  40.994  0.00  0.00    -0.281 OA
ATOM     27  C   UNL d   1      45.397 -18.102  40.553  0.00  0.00     0.152 A 
ATOM     28  C   UNL d   1      46.109 -17.955  40.155  0.00  0.00     0.152 A 
ATOM     29  O   UNL d   1      46.644 -18.555  40.344  0.00  0.00    -0.281 OA
ENDBRANCH  24  25
ENDBRANCH  23  24
ENDBRANCH  22  23
ENDBRANCH  19  22
ENDBRANCH   1  17
TORSDOF 7
ENDMDL
