MODEL 1
REMARK VINA RESULT:      -7.1      0.000      0.000
REMARK  4 active torsions:
REMARK  status: ('A' for Active; 'I' for Inactive)
REMARK    1  A    between atoms: C_7  and  C_1 
REMARK    2  A    between atoms: C_6  and  C_3 
REMARK    3  A    between atoms: O_15  and  C_8 
REMARK    4  A    between atoms: O_16  and  C_12 
ROOT
ATOM      1  C   UNL d   1     -47.892  14.123  22.866  0.00  0.00     0.042 A 
ATOM      2  C   UNL d   1     -48.524  13.636  23.069  0.00  0.00     0.098 A 
ATOM      3  C   UNL d   1     -49.290  13.927  23.045  0.00  0.00     0.048 A 
ATOM      4  C   UNL d   1     -48.025  14.901  22.638  0.00  0.00     0.005 A 
ATOM      5  C   UNL d   1     -49.430  14.711  22.816  0.00  0.00     0.096 A 
ATOM      6  C   UNL d   1     -48.793  15.199  22.612  0.00  0.00     0.024 A 
ENDROOT
BRANCH   1   7
ATOM      7  C   UNL d   1     -47.122  13.825  22.892  0.00  0.00     0.107 A 
ATOM      8  C   UNL d   1     -46.254  13.214  21.942  0.00  0.00     0.048 A 
ATOM      9  C   UNL d   1     -45.673  13.147  22.524  0.00  0.00     0.169 A 
ATOM     10  N   UNL d   1     -45.806  13.415  23.291  0.00  0.00    -0.142 NA
ATOM     11  N   UNL d   1     -46.538  13.756  23.470  0.00  0.00    -0.148 NA
BRANCH   9  12
ATOM     12  C   UNL d   1     -44.944  12.805  22.335  0.00  0.00     0.231 C 
ATOM     13  O   UNL d   1     -44.447  13.171  21.787  0.00  0.00    -0.643 OA
ATOM     14  O   UNL d   1     -44.714  12.100  22.693  0.00  0.00    -0.643 OA
ENDBRANCH   9  12
ENDBRANCH   1   7
BRANCH   2  15
ATOM     15  O   UNL d   1     -48.384  12.853  23.297  0.00  0.00    -0.328 OA
ATOM     16  C   UNL d   1     -49.023  12.353  23.461  0.00  0.00     0.181 C 
ENDBRANCH   2  15
BRANCH   5  17
ATOM     17  O   UNL d   1     -50.200  15.003  22.792  0.00  0.00    -0.328 OA
ATOM     18  C   UNL d   1     -50.431  15.610  23.305  0.00  0.00     0.181 C 
ENDBRANCH   5  17
TORSDOF 4
ENDMDL
MODEL 2
REMARK VINA RESULT:      -7.0      1.775      4.264
REMARK  4 active torsions:
REMARK  status: ('A' for Active; 'I' for Inactive)
REMARK    1  A    between atoms: C_7  and  C_1 
REMARK    2  A    between atoms: C_6  and  C_3 
REMARK    3  A    between atoms: O_15  and  C_8 
REMARK    4  A    between atoms: O_16  and  C_12 
ROOT
ATOM      1  C   UNL d   1     -47.865  12.621  23.171  0.00  0.00     0.042 A 
ATOM      2  C   UNL d   1     -47.152  13.009  23.035  0.00  0.00     0.098 A 
ATOM      3  C   UNL d   1     -46.442  12.636  23.210  0.00  0.00     0.048 A 
ATOM      4  C   UNL d   1     -47.871  11.860  23.482  0.00  0.00     0.005 A 
ATOM      5  C   UNL d   1     -46.442  11.869  23.523  0.00  0.00     0.096 A 
ATOM      6  C   UNL d   1     -47.160  11.481  23.659  0.00  0.00     0.024 A 
ENDROOT
BRANCH   1   7
ATOM      7  C   UNL d   1     -48.576  13.001  22.994  0.00  0.00     0.107 A 
ATOM      8  C   UNL d   1     -49.424  13.054  21.850  0.00  0.00     0.048 A 
ATOM      9  C   UNL d   1     -49.935  13.556  22.258  0.00  0.00     0.169 A 
ATOM     10  N   UNL d   1     -49.777  13.786  23.033  0.00  0.00    -0.142 NA
ATOM     11  N   UNL d   1     -49.091  13.503  23.398  0.00  0.00    -0.148 NA
BRANCH   9  12
ATOM     12  C   UNL d   1     -50.619  13.834  21.884  0.00  0.00     0.231 C 
ATOM     13  O   UNL d   1     -50.864  14.613  22.003  0.00  0.00    -0.643 OA
ATOM     14  O   UNL d   1     -51.054  13.335  21.395  0.00  0.00    -0.643 OA
ENDBRANCH   9  12
ENDBRANCH   1   7
BRANCH   2  15
ATOM     15  O   UNL d   1     -47.152  13.775  22.722  0.00  0.00    -0.328 OA
ATOM     16  C   UNL d   1     -46.436  14.179  22.624  0.00  0.00     0.181 C 
ENDBRANCH   2  15
BRANCH   5  17
ATOM     17  O   UNL d   1     -45.729  11.495  23.698  0.00  0.00    -0.328 OA
ATOM     18  C   UNL d   1     -45.682  10.668  23.696  0.00  0.00     0.181 C 
ENDBRANCH   5  17
TORSDOF 4
ENDMDL
MODEL 3
REMARK VINA RESULT:      -6.8      0.931      1.791
REMARK  4 active torsions:
REMARK  status: ('A' for Active; 'I' for Inactive)
REMARK    1  A    between atoms: C_7  and  C_1 
REMARK    2  A    between atoms: C_6  and  C_3 
REMARK    3  A    between atoms: O_15  and  C_8 
REMARK    4  A    between atoms: O_16  and  C_12 
ROOT
ATOM      1  C   UNL d   1     -48.062  12.908  23.210  0.00  0.00     0.042 A 
ATOM      2  C   UNL d   1     -48.513  13.586  23.091  0.00  0.00     0.098 A 
ATOM      3  C   UNL d   1     -49.329  13.553  23.161  0.00  0.00     0.048 A 
ATOM      4  C   UNL d   1     -48.425  12.196  23.399  0.00  0.00     0.005 A 
ATOM      5  C   UNL d   1     -49.701  12.838  23.352  0.00  0.00     0.096 A 
ATOM      6  C   UNL d   1     -49.246  12.158  23.471  0.00  0.00     0.024 A 
ENDROOT
BRANCH   1   7
ATOM      7  C   UNL d   1     -47.240  12.946  23.138  0.00  0.00     0.107 A 
ATOM      8  C   UNL d   1     -46.328  12.901  22.043  0.00  0.00     0.048 A 
ATOM      9  C   UNL d   1     -45.699  12.981  22.571  0.00  0.00     0.169 A 
ATOM     10  N   UNL d   1     -45.829  13.044  23.382  0.00  0.00    -0.142 NA
ATOM     11  N   UNL d   1     -46.607  13.026  23.661  0.00  0.00    -0.148 NA
BRANCH   9  12
ATOM     12  C   UNL d   1     -44.924  12.998  22.282  0.00  0.00     0.231 C 
ATOM     13  O   UNL d   1     -44.434  12.342  22.382  0.00  0.00    -0.643 OA
ATOM     14  O   UNL d   1     -44.643  13.668  21.895  0.00  0.00    -0.643 OA
ENDBRANCH   9  12
ENDBRANCH   1   7
BRANCH   2  15
ATOM     15  O   UNL d   1     -48.141  14.300  22.901  0.00  0.00    -0.328 OA
ATOM     16  C   UNL d   1     -48.598  14.972  22.743  0.00  0.00     0.181 C 
ENDBRANCH   2  15
BRANCH   5  17
ATOM     17  O   UNL d   1     -50.522  12.805  23.423  0.00  0.00    -0.328 OA
ATOM     18  C   UNL d   1     -50.897  12.085  23.584  0.00  0.00     0.181 C 
ENDBRANCH   5  17
TORSDOF 4
ENDMDL
MODEL 4
REMARK VINA RESULT:      -5.7      7.284      8.743
REMARK  4 active torsions:
REMARK  status: ('A' for Active; 'I' for Inactive)
REMARK    1  A    between atoms: C_7  and  C_1 
REMARK    2  A    between atoms: C_6  and  C_3 
REMARK    3  A    between atoms: O_15  and  C_8 
REMARK    4  A    between atoms: O_16  and  C_12 
ROOT
ATOM      1  C   UNL d   1     -39.940  14.455  19.982  0.00  0.00     0.042 A 
ATOM      2  C   UNL d   1     -40.335  14.856  20.583  0.00  0.00     0.098 A 
ATOM      3  C   UNL d   1     -40.058  14.816  21.354  0.00  0.00     0.048 A 
ATOM      4  C   UNL d   1     -39.269  14.013  20.151  0.00  0.00     0.005 A 
ATOM      5  C   UNL d   1     -39.382  14.372  21.530  0.00  0.00     0.096 A 
ATOM      6  C   UNL d   1     -38.986  13.969  20.924  0.00  0.00     0.024 A 
ENDROOT
BRANCH   1   7
ATOM      7  C   UNL d   1     -40.222  14.499  19.207  0.00  0.00     0.107 A 
ATOM      8  C   UNL d   1     -40.068  15.427  18.137  0.00  0.00     0.048 A 
ATOM      9  C   UNL d   1     -40.553  14.956  17.665  0.00  0.00     0.169 A 
ATOM     10  N   UNL d   1     -40.877  14.256  17.954  0.00  0.00    -0.142 NA
ATOM     11  N   UNL d   1     -40.707  14.031  18.732  0.00  0.00    -0.148 NA
BRANCH   9  12
ATOM     12  C   UNL d   1     -40.717  15.189  16.889  0.00  0.00     0.231 C 
ATOM     13  O   UNL d   1     -40.099  15.394  16.382  0.00  0.00    -0.643 OA
ATOM     14  O   UNL d   1     -41.496  15.217  16.622  0.00  0.00    -0.643 OA
ENDBRANCH   9  12
ENDBRANCH   1   7
BRANCH   2  15
ATOM     15  O   UNL d   1     -41.011  15.300  20.407  0.00  0.00    -0.328 OA
ATOM     16  C   UNL d   1     -41.349  15.782  20.989  0.00  0.00     0.181 C 
ENDBRANCH   2  15
BRANCH   5  17
ATOM     17  O   UNL d   1     -39.104  14.331  22.305  0.00  0.00    -0.328 OA
ATOM     18  C   UNL d   1     -38.837  13.611  22.613  0.00  0.00     0.181 C 
ENDBRANCH   5  17
TORSDOF 4
ENDMDL
MODEL 5
REMARK VINA RESULT:      -5.2      7.381      9.463
REMARK  4 active torsions:
REMARK  status: ('A' for Active; 'I' for Inactive)
REMARK    1  A    between atoms: C_7  and  C_1 
REMARK    2  A    between atoms: C_6  and  C_3 
REMARK    3  A    between atoms: O_15  and  C_8 
REMARK    4  A    between atoms: O_16  and  C_12 
ROOT
ATOM      1  C   UNL d   1     -39.803  14.386  18.183  0.00  0.00     0.042 A 
ATOM      2  C   UNL d   1     -40.115  14.695  17.487  0.00  0.00     0.098 A 
ATOM      3  C   UNL d   1     -39.767  14.515  16.766  0.00  0.00     0.048 A 
ATOM      4  C   UNL d   1     -39.144  13.896  18.160  0.00  0.00     0.005 A 
ATOM      5  C   UNL d   1     -39.103  14.022  16.737  0.00  0.00     0.096 A 
ATOM      6  C   UNL d   1     -38.791  13.712  17.438  0.00  0.00     0.024 A 
ENDROOT
BRANCH   1   7
ATOM      7  C   UNL d   1     -40.156  14.570  18.906  0.00  0.00     0.107 A 
ATOM      8  C   UNL d   1     -40.069  15.667  19.812  0.00  0.00     0.048 A 
ATOM      9  C   UNL d   1     -40.615  15.296  20.306  0.00  0.00     0.169 A 
ATOM     10  N   UNL d   1     -40.937  14.563  20.110  0.00  0.00    -0.142 NA
ATOM     11  N   UNL d   1     -40.702  14.203  19.404  0.00  0.00    -0.148 NA
BRANCH   9  12
ATOM     12  C   UNL d   1     -40.844  15.664  21.011  0.00  0.00     0.231 C 
ATOM     13  O   UNL d   1     -40.293  15.774  21.615  0.00  0.00    -0.643 OA
ATOM     14  O   UNL d   1     -41.620  15.920  21.109  0.00  0.00    -0.643 OA
ENDBRANCH   9  12
ENDBRANCH   1   7
BRANCH   2  15
ATOM     15  O   UNL d   1     -40.779  15.188  17.516  0.00  0.00    -0.328 OA
ATOM     16  C   UNL d   1     -41.088  15.503  16.816  0.00  0.00     0.181 C 
ENDBRANCH   2  15
BRANCH   5  17
ATOM     17  O   UNL d   1     -38.754  13.841  16.013  0.00  0.00    -0.328 OA
ATOM     18  C   UNL d   1     -37.944  13.966  15.899  0.00  0.00     0.181 C 
ENDBRANCH   5  17
TORSDOF 4
ENDMDL
MODEL 6
REMARK VINA RESULT:      -4.9      8.207      8.797
REMARK  4 active torsions:
REMARK  status: ('A' for Active; 'I' for Inactive)
REMARK    1  A    between atoms: C_7  and  C_1 
REMARK    2  A    between atoms: C_6  and  C_3 
REMARK    3  A    between atoms: O_15  and  C_8 
REMARK    4  A    between atoms: O_16  and  C_12 
ROOT
ATOM      1  C   UNL d   1     -40.301  15.377  18.790  0.00  0.00     0.042 A 
ATOM      2  C   UNL d   1     -40.083  14.786  18.259  0.00  0.00     0.098 A 
ATOM      3  C   UNL d   1     -40.444  14.741  17.524  0.00  0.00     0.048 A 
ATOM      4  C   UNL d   1     -40.881  15.922  18.587  0.00  0.00     0.005 A 
ATOM      5  C   UNL d   1     -41.029  15.288  17.315  0.00  0.00     0.096 A 
ATOM      6  C   UNL d   1     -41.247  15.881  17.850  0.00  0.00     0.024 A 
ENDROOT
BRANCH   1   7
ATOM      7  C   UNL d   1     -39.934  15.418  19.528  0.00  0.00     0.107 A 
ATOM      8  C   UNL d   1     -40.249  14.934  20.831  0.00  0.00     0.048 A 
ATOM      9  C   UNL d   1     -39.553  15.270  21.119  0.00  0.00     0.169 A 
ATOM     10  N   UNL d   1     -39.041  15.681  20.621  0.00  0.00    -0.142 NA
ATOM     11  N   UNL d   1     -39.239  15.753  19.821  0.00  0.00    -0.148 NA
BRANCH   9  12
ATOM     12  C   UNL d   1     -39.364  15.194  21.920  0.00  0.00     0.231 C 
ATOM     13  O   UNL d   1     -39.097  14.470  22.212  0.00  0.00    -0.643 OA
ATOM     14  O   UNL d   1     -39.443  15.839  22.426  0.00  0.00    -0.643 OA
ENDBRANCH   9  12
ENDBRANCH   1   7
BRANCH   2  15
ATOM     15  O   UNL d   1     -39.498  14.239  18.469  0.00  0.00    -0.328 OA
ATOM     16  C   UNL d   1     -39.255  13.668  17.921  0.00  0.00     0.181 C 
ENDBRANCH   2  15
BRANCH   5  17
ATOM     17  O   UNL d   1     -41.392  15.242  16.576  0.00  0.00    -0.328 OA
ATOM     18  C   UNL d   1     -41.713  15.921  16.228  0.00  0.00     0.181 C 
ENDBRANCH   5  17
TORSDOF 4
ENDMDL
MODEL 7
REMARK VINA RESULT:      -4.3      7.739      8.722
REMARK  4 active torsions:
REMARK  status: ('A' for Active; 'I' for Inactive)
REMARK    1  A    between atoms: C_7  and  C_1 
REMARK    2  A    between atoms: C_6  and  C_3 
REMARK    3  A    between atoms: O_15  and  C_8 
REMARK    4  A    between atoms: O_16  and  C_12 
ROOT
ATOM      1  C   UNL d   1     -39.719  14.500  19.550  0.00  0.00     0.042 A 
ATOM      2  C   UNL d   1     -40.352  15.024  19.502  0.00  0.00     0.098 A 
ATOM      3  C   UNL d   1     -40.765  15.105  18.798  0.00  0.00     0.048 A 
ATOM      4  C   UNL d   1     -39.497  14.056  18.896  0.00  0.00     0.005 A 
ATOM      5  C   UNL d   1     -40.546  14.660  18.135  0.00  0.00     0.096 A 
ATOM      6  C   UNL d   1     -39.909  14.133  18.186  0.00  0.00     0.024 A 
ENDROOT
BRANCH   1   7
ATOM      7  C   UNL d   1     -39.306  14.422  20.262  0.00  0.00     0.107 A 
ATOM      8  C   UNL d   1     -39.504  13.672  21.456  0.00  0.00     0.048 A 
ATOM      9  C   UNL d   1     -38.812  13.994  21.768  0.00  0.00     0.169 A 
ATOM     10  N   UNL d   1     -38.360  14.531  21.335  0.00  0.00    -0.142 NA
ATOM     11  N   UNL d   1     -38.614  14.743  20.577  0.00  0.00    -0.148 NA
BRANCH   9  12
ATOM     12  C   UNL d   1     -38.566  13.776  22.527  0.00  0.00     0.231 C 
ATOM     13  O   UNL d   1     -38.712  14.277  23.166  0.00  0.00    -0.643 OA
ATOM     14  O   UNL d   1     -38.175  13.061  22.645  0.00  0.00    -0.643 OA
ENDBRANCH   9  12
ENDBRANCH   1   7
BRANCH   2  15
ATOM     15  O   UNL d   1     -40.570  15.469  20.165  0.00  0.00    -0.328 OA
ATOM     16  C   UNL d   1     -41.263  15.922  20.146  0.00  0.00     0.181 C 
ENDBRANCH   2  15
BRANCH   5  17
ATOM     17  O   UNL d   1     -40.961  14.741  17.428  0.00  0.00    -0.328 OA
ATOM     18  C   UNL d   1     -40.675  15.240  16.833  0.00  0.00     0.181 C 
ENDBRANCH   5  17
TORSDOF 4
ENDMDL
