MODEL 1
REMARK VINA RESULT:      -3.6      0.000      0.000
REMARK  3 active torsions:
REMARK  status: ('A' for Active; 'I' for Inactive)
REMARK    1  A    between atoms: C_7  and  C_1 
REMARK    2  A    between atoms: O_20  and  C_12 
REMARK    3  A    between atoms: O_22  and  C_16 
ROOT
ATOM      1  C   UNL d   1      57.626   0.237  31.869  0.00  0.00     0.062 A 
ATOM      2  C   UNL d   1      57.673   0.079  31.051  0.00  0.00     0.202 A 
ATOM      3  C   UNL d   1      58.380   0.207  30.639  0.00  0.00     0.101 A 
ATOM      4  C   UNL d   1      58.299   0.527  32.274  0.00  0.00     0.103 A 
ATOM      5  C   UNL d   1      59.050   0.497  31.048  0.00  0.00     0.109 A 
ATOM      6  O   UNL d   1      59.013   0.656  31.858  0.00  0.00    -0.307 OA
ATOM      7  C   UNL d   1      58.423   0.051  29.834  0.00  0.00     0.204 A 
ATOM      8  C   UNL d   1      59.757   0.624  30.637  0.00  0.00     0.067 A 
ATOM      9  C   UNL d   1      59.127   0.179  29.427  0.00  0.00     0.084 A 
ATOM     10  O   UNL d   1      57.010  -0.206  30.651  0.00  0.00    -0.286 OA
ATOM     11  C   UNL d   1      59.791   0.464  29.826  0.00  0.00     0.201 A 
ATOM     12  O   UNL d   1      57.760  -0.234  29.434  0.00  0.00    -0.286 OA
ATOM     13  C   UNL d   1      58.253   0.682  33.077  0.00  0.00     0.027 C 
ATOM     14  O   UNL d   1      60.495   0.592  29.419  0.00  0.00    -0.286 OA
ENDROOT
BRANCH   1  15
ATOM     15  C   UNL d   1      56.925   0.110  32.272  0.00  0.00     0.007 A 
ATOM     16  C   UNL d   1      56.821  -0.588  32.697  0.00  0.00     0.026 A 
ATOM     17  C   UNL d   1      56.116  -0.719  33.104  0.00  0.00     0.116 A 
ATOM     18  C   UNL d   1      55.511  -0.147  33.085  0.00  0.00     0.116 A 
ATOM     19  C   UNL d   1      55.626   0.550  32.655  0.00  0.00     0.026 A 
ATOM     20  C   UNL d   1      56.330   0.681  32.249  0.00  0.00     0.002 A 
BRANCH  17  21
ATOM     21  O   UNL d   1      56.009  -1.419  33.531  0.00  0.00    -0.326 OA
ATOM     22  C   UNL d   1      55.797  -2.111  33.135  0.00  0.00     0.181 C 
ENDBRANCH  17  21
BRANCH  18  23
ATOM     23  O   UNL d   1      54.807  -0.278  33.491  0.00  0.00    -0.326 OA
ATOM     24  C   UNL d   1      54.472   0.325  33.946  0.00  0.00     0.181 C 
ENDBRANCH  18  23
ENDBRANCH   1  15
TORSDOF 3
ENDMDL
MODEL 2
REMARK VINA RESULT:      -2.9      1.260      4.056
REMARK  3 active torsions:
REMARK  status: ('A' for Active; 'I' for Inactive)
REMARK    1  A    between atoms: C_7  and  C_1 
REMARK    2  A    between atoms: O_20  and  C_12 
REMARK    3  A    between atoms: O_22  and  C_16 
ROOT
ATOM      1  C   UNL d   1      57.321   0.200  32.138  0.00  0.00     0.062 A 
ATOM      2  C   UNL d   1      56.546   0.038  32.399  0.00  0.00     0.202 A 
ATOM      3  C   UNL d   1      56.326   0.195  33.182  0.00  0.00     0.101 A 
ATOM      4  C   UNL d   1      57.879   0.523  32.672  0.00  0.00     0.103 A 
ATOM      5  C   UNL d   1      56.887   0.518  33.712  0.00  0.00     0.109 A 
ATOM      6  O   UNL d   1      57.657   0.681  33.462  0.00  0.00    -0.307 OA
ATOM      7  C   UNL d   1      55.561   0.035  33.437  0.00  0.00     0.204 A 
ATOM      8  C   UNL d   1      56.668   0.675  34.495  0.00  0.00     0.067 A 
ATOM      9  C   UNL d   1      55.346   0.192  34.216  0.00  0.00     0.084 A 
ATOM     10  O   UNL d   1      55.995  -0.280  31.874  0.00  0.00    -0.286 OA
ATOM     11  C   UNL d   1      55.896   0.511  34.741  0.00  0.00     0.201 A 
ATOM     12  O   UNL d   1      55.011  -0.283  32.911  0.00  0.00    -0.286 OA
ATOM     13  C   UNL d   1      58.641   0.681  32.415  0.00  0.00     0.027 C 
ATOM     14  O   UNL d   1      55.680   0.668  35.520  0.00  0.00    -0.286 OA
ENDROOT
BRANCH   1  15
ATOM     15  C   UNL d   1      57.534   0.042  31.362  0.00  0.00     0.007 A 
ATOM     16  C   UNL d   1      57.643  -0.737  31.120  0.00  0.00     0.026 A 
ATOM     17  C   UNL d   1      57.857  -0.897  30.341  0.00  0.00     0.116 A 
ATOM     18  C   UNL d   1      57.964  -0.272  29.800  0.00  0.00     0.116 A 
ATOM     19  C   UNL d   1      57.852   0.506  30.055  0.00  0.00     0.026 A 
ATOM     20  C   UNL d   1      57.638   0.666  30.833  0.00  0.00     0.002 A 
BRANCH  17  21
ATOM     21  O   UNL d   1      57.966  -1.680  30.095  0.00  0.00    -0.326 OA
ATOM     22  C   UNL d   1      58.719  -1.937  29.875  0.00  0.00     0.181 C 
ENDBRANCH  17  21
BRANCH  18  23
ATOM     23  O   UNL d   1      58.178  -0.434  29.021  0.00  0.00    -0.326 OA
ATOM     24  C   UNL d   1      58.492   0.165  28.546  0.00  0.00     0.181 C 
ENDBRANCH  18  23
ENDBRANCH   1  15
TORSDOF 3
ENDMDL
MODEL 3
REMARK VINA RESULT:      -1.8      1.234      1.913
REMARK  3 active torsions:
REMARK  status: ('A' for Active; 'I' for Inactive)
REMARK    1  A    between atoms: C_7  and  C_1 
REMARK    2  A    between atoms: O_20  and  C_12 
REMARK    3  A    between atoms: O_22  and  C_16 
ROOT
ATOM      1  C   UNL d   1      56.876  -0.691  31.818  0.00  0.00     0.062 A 
ATOM      2  C   UNL d   1      57.376  -0.232  31.334  0.00  0.00     0.202 A 
ATOM      3  C   UNL d   1      57.759  -0.573  30.684  0.00  0.00     0.101 A 
ATOM      4  C   UNL d   1      56.763  -1.502  31.645  0.00  0.00     0.103 A 
ATOM      5  C   UNL d   1      57.643  -1.384  30.514  0.00  0.00     0.109 A 
ATOM      6  O   UNL d   1      57.150  -1.847  30.989  0.00  0.00    -0.307 OA
ATOM      7  C   UNL d   1      58.251  -0.118  30.208  0.00  0.00     0.204 A 
ATOM      8  C   UNL d   1      58.027  -1.725  29.865  0.00  0.00     0.067 A 
ATOM      9  C   UNL d   1      58.631  -0.459  29.563  0.00  0.00     0.084 A 
ATOM     10  O   UNL d   1      57.488   0.568  31.504  0.00  0.00    -0.286 OA
ATOM     11  C   UNL d   1      58.520  -1.258  29.392  0.00  0.00     0.201 A 
ATOM     12  O   UNL d   1      58.363   0.682  30.379  0.00  0.00    -0.286 OA
ATOM     13  C   UNL d   1      56.272  -1.954  32.121  0.00  0.00     0.027 C 
ATOM     14  O   UNL d   1      58.900  -1.600  28.747  0.00  0.00    -0.286 OA
ENDROOT
BRANCH   1  15
ATOM     15  C   UNL d   1      56.498  -0.350  32.460  0.00  0.00     0.007 A 
ATOM     16  C   UNL d   1      56.904  -0.260  33.171  0.00  0.00     0.026 A 
ATOM     17  C   UNL d   1      56.527   0.083  33.818  0.00  0.00     0.116 A 
ATOM     18  C   UNL d   1      55.737   0.339  33.753  0.00  0.00     0.116 A 
ATOM     19  C   UNL d   1      55.339   0.244  33.034  0.00  0.00     0.026 A 
ATOM     20  C   UNL d   1      55.716  -0.099  32.388  0.00  0.00     0.002 A 
BRANCH  17  21
ATOM     21  O   UNL d   1      56.933   0.174  34.533  0.00  0.00    -0.326 OA
ATOM     22  C   UNL d   1      57.587   0.675  34.570  0.00  0.00     0.181 C 
ENDBRANCH  17  21
BRANCH  18  23
ATOM     23  O   UNL d   1      55.360   0.682  34.399  0.00  0.00    -0.326 OA
ATOM     24  C   UNL d   1      54.537   0.650  34.464  0.00  0.00     0.181 C 
ENDBRANCH  18  23
ENDBRANCH   1  15
TORSDOF 3
ENDMDL
