MODEL 1
REMARK VINA RESULT:      73.0      0.000      0.000
REMARK  4 active torsions:
REMARK  status: ('A' for Active; 'I' for Inactive)
REMARK    1  A    between atoms: C_2  and  C_1 
REMARK    2  A    between atoms: C_15  and  C_8 
REMARK    3  A    between atoms: C_9  and  C_15 
REMARK    4  A    between atoms: C_18  and  C_10 
ROOT
ATOM      1  C   UNL d   1     -49.825  27.277  33.963  0.00  0.00     0.094 A 
ATOM      2  N   UNL d   1     -49.329  27.303  34.622  0.00  0.00    -0.238 NA
ATOM      3  C   UNL d   1     -48.999  28.066  34.632  0.00  0.00     0.113 A 
ATOM      4  S   UNL d   1     -49.292  28.508  33.979  0.00  0.00    -0.066 SA
ATOM      5  C   UNL d   1     -49.803  28.004  33.575  0.00  0.00     0.056 A 
ENDROOT
BRANCH   3   6
ATOM      6  C   UNL d   1     -48.474  28.348  35.184  0.00  0.00     0.051 C 
BRANCH   6   7
ATOM      7  C   UNL d   1     -48.132  29.083  35.099  0.00  0.00     0.113 A 
ATOM      8  N   UNL d   1     -48.407  29.784  34.741  0.00  0.00    -0.238 NA
ATOM      9  C   UNL d   1     -47.812  30.367  34.823  0.00  0.00     0.088 A 
ATOM     10  C   UNL d   1     -47.190  30.007  35.227  0.00  0.00     0.056 A 
ATOM     11  S   UNL d   1     -47.372  29.238  35.397  0.00  0.00    -0.066 SA
BRANCH   9  12
ATOM     12  C   UNL d   1     -47.860  31.134  34.547  0.00  0.00     0.018 A 
ATOM     13  C   UNL d   1     -48.492  31.388  34.119  0.00  0.00     0.002 A 
ATOM     14  C   UNL d   1     -48.536  32.160  33.844  0.00  0.00     0.000 A 
ATOM     15  C   UNL d   1     -47.926  32.677  34.011  0.00  0.00     0.000 A 
ATOM     16  C   UNL d   1     -47.286  32.426  34.443  0.00  0.00     0.000 A 
ATOM     17  C   UNL d   1     -47.976  33.465  33.728  0.00  0.00     0.000 C 
ATOM     18  C   UNL d   1     -47.250  31.659  34.711  0.00  0.00     0.002 A 
ENDBRANCH   9  12
ENDBRANCH   6   7
ENDBRANCH   3   6
BRANCH   1  19
ATOM     19  C   UNL d   1     -50.244  26.572  33.799  0.00  0.00     0.082 A 
ATOM     20  C   UNL d   1     -49.822  25.825  33.629  0.00  0.00     0.302 A 
ATOM     21  O   UNL d   1     -50.253  25.139  33.469  0.00  0.00    -0.273 OA
ATOM     22  O   UNL d   1     -48.961  25.773  33.619  0.00  0.00    -0.259 OA
ATOM     23  C   UNL d   1     -51.092  25.154  33.470  0.00  0.00     0.103 A 
ATOM     24  C   UNL d   1     -51.491  25.858  33.631  0.00  0.00     0.023 A 
ATOM     25  C   UNL d   1     -51.489  24.448  33.307  0.00  0.00     0.025 A 
ATOM     26  C   UNL d   1     -51.072  26.566  33.795  0.00  0.00     0.009 A 
ATOM     27  C   UNL d   1     -52.327  25.869  33.631  0.00  0.00     0.002 A 
ATOM     28  C   UNL d   1     -52.759  25.182  33.471  0.00  0.00     0.000 A 
ATOM     29  C   UNL d   1     -52.323  24.462  33.307  0.00  0.00     0.002 A 
ENDBRANCH   1  19
TORSDOF 4
ENDMDL
