MODEL 1
REMARK VINA RESULT:      74.3      0.000      0.000
REMARK  7 active torsions:
REMARK  status: ('A' for Active; 'I' for Inactive)
REMARK    1  A    between atoms: C_7  and  C_1 
REMARK    2  A    between atoms: N_5  and  C_2 
REMARK       I    between atoms: C_8  and  N_5 
REMARK    3  A    between atoms: N_9  and  C_7 
REMARK    4  A    between atoms: C_11  and  C_7 
REMARK    5  A    between atoms: C_16  and  C_8 
REMARK    6  A    between atoms: C_21  and  N_10 
REMARK    7  A    between atoms: C_27  and  C_21 
ROOT
ATOM      1  C   UNL d   1      14.386  13.127  -1.255  0.00  0.00     0.042 A 
ATOM      2  C   UNL d   1      14.138  13.154  -2.046  0.00  0.00     0.115 A 
ATOM      3  C   UNL d   1      13.903  12.613  -0.858  0.00  0.00     0.009 A 
ATOM      4  S   UNL d   1      13.506  12.656  -2.125  0.00  0.00    -0.068 SA
ATOM      5  C   UNL d   1      13.361  12.317  -1.375  0.00  0.00     0.031 A 
ATOM      6  C   UNL d   1      13.948  12.404  -0.015  0.00  0.00     0.001 C 
ATOM      7  C   UNL d   1      12.769  11.780  -1.208  0.00  0.00     0.007 C 
ENDROOT
BRANCH   1   8
ATOM      8  C   UNL d   1      15.022  13.576  -0.996  0.00  0.00     0.084 C 
BRANCH   8   9
ATOM      9  N   UNL d   1      14.947  14.394  -1.009  0.00  0.00    -0.300 N 
ATOM     10  C   UNL d   1      15.153  14.830  -1.683  0.00  0.00     0.100 A 
ATOM     11  C   UNL d   1      15.068  15.646  -1.667  0.00  0.00     0.100 A 
ATOM     12  N   UNL d   1      14.790  16.033  -1.016  0.00  0.00    -0.297 N 
ATOM     13  C   UNL d   1      14.584  15.597  -0.342  0.00  0.00     0.100 A 
ATOM     14  C   UNL d   1      14.658  14.779  -0.328  0.00  0.00     0.100 A 
BRANCH  12  15
ATOM     15  C   UNL d   1      14.709  16.871  -1.016  0.00  0.00     0.126 C 
BRANCH  15  16
ATOM     16  C   UNL d   1      15.372  17.364  -1.048  0.00  0.00     0.253 C 
ATOM     17  O   UNL d   1      15.525  17.885  -0.439  0.00  0.00    -0.281 OA
ENDBRANCH  15  16
ENDBRANCH  12  15
ENDBRANCH   8   9
BRANCH   8  18
ATOM     18  C   UNL d   1      15.717  13.215  -0.728  0.00  0.00     0.098 A 
ATOM     19  N   UNL d   1      16.254  13.644  -0.295  0.00  0.00    -0.243 NA
ATOM     20  C   UNL d   1      16.938  13.258  -0.042  0.00  0.00     0.099 A 
ATOM     21  C   UNL d   1      17.084  12.508  -0.203  0.00  0.00     0.021 A 
ATOM     22  C   UNL d   1      16.548  12.060  -0.641  0.00  0.00     0.003 A 
ATOM     23  C   UNL d   1      15.855  12.419  -0.908  0.00  0.00     0.021 A 
ENDBRANCH   8  18
ENDBRANCH   1   8
BRANCH   2  24
ATOM     24  N   UNL d   1      14.529  13.629  -2.566  0.00  0.00    -0.201 NA
ATOM     25  C   UNL d   1      14.381  13.523  -3.375  0.00  0.00     0.280 C 
ATOM     26  O   UNL d   1      14.763  13.989  -3.920  0.00  0.00    -0.265 OA
BRANCH  25  27
ATOM     27  C   UNL d   1      13.845  12.944  -3.630  0.00  0.00     0.058 A 
ATOM     28  C   UNL d   1      13.445  12.481  -3.084  0.00  0.00     0.005 A 
ATOM     29  C   UNL d   1      12.903  11.895  -3.338  0.00  0.00     0.000 A 
ATOM     30  C   UNL d   1      12.772  11.784  -4.142  0.00  0.00     0.000 A 
ATOM     31  C   UNL d   1      13.179  12.255  -4.685  0.00  0.00     0.000 A 
ATOM     32  C   UNL d   1      13.714  12.834  -4.439  0.00  0.00     0.005 A 
ENDBRANCH  25  27
ENDBRANCH   2  24
TORSDOF 7
ENDMDL
MODEL 2
REMARK VINA RESULT:      74.4      1.822      4.112
REMARK  7 active torsions:
REMARK  status: ('A' for Active; 'I' for Inactive)
REMARK    1  A    between atoms: C_7  and  C_1 
REMARK    2  A    between atoms: N_5  and  C_2 
REMARK       I    between atoms: C_8  and  N_5 
REMARK    3  A    between atoms: N_9  and  C_7 
REMARK    4  A    between atoms: C_11  and  C_7 
REMARK    5  A    between atoms: C_16  and  C_8 
REMARK    6  A    between atoms: C_21  and  N_10 
REMARK    7  A    between atoms: C_27  and  C_21 
ROOT
ATOM      1  C   UNL d   1      14.468  14.541  -2.368  0.00  0.00     0.042 A 
ATOM      2  C   UNL d   1      14.526  13.746  -2.138  0.00  0.00     0.115 A 
ATOM      3  C   UNL d   1      14.528  14.999  -1.704  0.00  0.00     0.009 A 
ATOM      4  S   UNL d   1      14.621  13.726  -1.336  0.00  0.00    -0.068 SA
ATOM      5  C   UNL d   1      14.622  14.517  -1.066  0.00  0.00     0.031 A 
ATOM      6  C   UNL d   1      14.499  15.867  -1.667  0.00  0.00     0.001 C 
ATOM      7  C   UNL d   1      14.705  14.748  -0.286  0.00  0.00     0.007 C 
ENDROOT
BRANCH   1   8
ATOM      8  C   UNL d   1      14.367  14.747  -3.155  0.00  0.00     0.084 C 
BRANCH   8   9
ATOM      9  N   UNL d   1      13.965  14.222  -3.643  0.00  0.00    -0.300 N 
ATOM     10  C   UNL d   1      13.143  14.131  -3.586  0.00  0.00     0.100 A 
ATOM     11  C   UNL d   1      12.770  13.599  -4.087  0.00  0.00     0.100 A 
ATOM     12  N   UNL d   1      13.179  13.164  -4.630  0.00  0.00    -0.297 N 
ATOM     13  C   UNL d   1      14.001  13.256  -4.687  0.00  0.00     0.100 A 
ATOM     14  C   UNL d   1      14.403  13.781  -4.199  0.00  0.00     0.100 A 
BRANCH  12  15
ATOM     15  C   UNL d   1      12.780  12.623  -5.136  0.00  0.00     0.126 C 
BRANCH  15  16
ATOM     16  C   UNL d   1      13.198  12.149  -5.669  0.00  0.00     0.253 C 
ATOM     17  O   UNL d   1      14.008  12.228  -5.739  0.00  0.00    -0.281 OA
ENDBRANCH  15  16
ENDBRANCH  12  15
ENDBRANCH   8   9
BRANCH   8  18
ATOM     18  C   UNL d   1      14.661  15.463  -3.450  0.00  0.00     0.098 A 
ATOM     19  N   UNL d   1      15.437  15.664  -3.323  0.00  0.00    -0.243 NA
ATOM     20  C   UNL d   1      15.703  16.383  -3.629  0.00  0.00     0.099 A 
ATOM     21  C   UNL d   1      15.239  16.868  -4.029  0.00  0.00     0.021 A 
ATOM     22  C   UNL d   1      14.448  16.678  -4.166  0.00  0.00     0.003 A 
ATOM     23  C   UNL d   1      14.155  15.965  -3.872  0.00  0.00     0.021 A 
ENDBRANCH   8  18
ENDBRANCH   1   8
BRANCH   2  24
ATOM     24  N   UNL d   1      14.482  13.169  -2.700  0.00  0.00    -0.201 NA
ATOM     25  C   UNL d   1      14.482  12.380  -2.445  0.00  0.00     0.280 C 
ATOM     26  O   UNL d   1      14.439  11.780  -2.990  0.00  0.00    -0.265 OA
BRANCH  25  27
ATOM     27  C   UNL d   1      14.526  12.201  -1.637  0.00  0.00     0.058 A 
ATOM     28  C   UNL d   1      15.254  12.160  -1.260  0.00  0.00     0.005 A 
ATOM     29  C   UNL d   1      15.301  11.980  -0.444  0.00  0.00     0.000 A 
ATOM     30  C   UNL d   1      14.612  11.843  -0.017  0.00  0.00     0.000 A 
ATOM     31  C   UNL d   1      13.884  11.886  -0.404  0.00  0.00     0.000 A 
ATOM     32  C   UNL d   1      13.832  12.064  -1.208  0.00  0.00     0.005 A 
ENDBRANCH  25  27
ENDBRANCH   2  24
TORSDOF 7
ENDMDL
MODEL 3
REMARK VINA RESULT:      76.9      1.137      1.978
REMARK  7 active torsions:
REMARK  status: ('A' for Active; 'I' for Inactive)
REMARK    1  A    between atoms: C_7  and  C_1 
REMARK    2  A    between atoms: N_5  and  C_2 
REMARK       I    between atoms: C_8  and  N_5 
REMARK    3  A    between atoms: N_9  and  C_7 
REMARK    4  A    between atoms: C_11  and  C_7 
REMARK    5  A    between atoms: C_16  and  C_8 
REMARK    6  A    between atoms: C_21  and  N_10 
REMARK    7  A    between atoms: C_27  and  C_21 
ROOT
ATOM      1  C   UNL d   1      14.524  14.289  -2.349  0.00  0.00     0.042 A 
ATOM      2  C   UNL d   1      14.075  13.676  -2.680  0.00  0.00     0.115 A 
ATOM      3  C   UNL d   1      14.675  14.831  -2.929  0.00  0.00     0.009 A 
ATOM      4  S   UNL d   1      13.956  13.849  -3.460  0.00  0.00    -0.068 SA
ATOM      5  C   UNL d   1      14.335  14.578  -3.614  0.00  0.00     0.031 A 
ATOM      6  C   UNL d   1      15.126  15.570  -2.846  0.00  0.00     0.001 C 
ATOM      7  C   UNL d   1      14.351  14.958  -4.337  0.00  0.00     0.007 C 
ENDROOT
BRANCH   1   8
ATOM      8  C   UNL d   1      14.739  14.275  -1.557  0.00  0.00     0.084 C 
BRANCH   8   9
ATOM      9  N   UNL d   1      14.904  14.991  -1.191  0.00  0.00    -0.300 N 
ATOM     10  C   UNL d   1      15.059  15.029  -0.377  0.00  0.00     0.100 A 
ATOM     11  C   UNL d   1      15.220  15.758  -0.039  0.00  0.00     0.100 A 
ATOM     12  N   UNL d   1      15.231  16.438  -0.475  0.00  0.00    -0.297 N 
ATOM     13  C   UNL d   1      15.076  16.400  -1.288  0.00  0.00     0.100 A 
ATOM     14  C   UNL d   1      14.912  15.684  -1.655  0.00  0.00     0.100 A 
BRANCH  12  15
ATOM     15  C   UNL d   1      15.398  17.179  -0.111  0.00  0.00     0.126 C 
BRANCH  15  16
ATOM     16  C   UNL d   1      16.136  17.542  -0.202  0.00  0.00     0.253 C 
ATOM     17  O   UNL d   1      16.234  18.139  -0.750  0.00  0.00    -0.281 OA
ENDBRANCH  15  16
ENDBRANCH  12  15
ENDBRANCH   8   9
BRANCH   8  18
ATOM     18  C   UNL d   1      14.789  13.561  -1.141  0.00  0.00     0.098 A 
ATOM     19  N   UNL d   1      14.195  13.349  -0.630  0.00  0.00    -0.243 NA
ATOM     20  C   UNL d   1      14.272  12.632  -0.229  0.00  0.00     0.099 A 
ATOM     21  C   UNL d   1      14.888  12.159  -0.323  0.00  0.00     0.021 A 
ATOM     22  C   UNL d   1      15.499  12.362  -0.838  0.00  0.00     0.003 A 
ATOM     23  C   UNL d   1      15.449  13.073  -1.253  0.00  0.00     0.021 A 
ENDBRANCH   8  18
ENDBRANCH   1   8
BRANCH   2  24
ATOM     24  N   UNL d   1      13.848  13.057  -2.216  0.00  0.00    -0.201 NA
ATOM     25  C   UNL d   1      13.457  12.422  -2.580  0.00  0.00     0.280 C 
ATOM     26  O   UNL d   1      13.217  11.787  -2.134  0.00  0.00    -0.265 OA
BRANCH  25  27
ATOM     27  C   UNL d   1      13.309  12.434  -3.395  0.00  0.00     0.058 A 
ATOM     28  C   UNL d   1      12.927  13.074  -3.738  0.00  0.00     0.005 A 
ATOM     29  C   UNL d   1      12.777  13.088  -4.562  0.00  0.00     0.000 A 
ATOM     30  C   UNL d   1      13.015  12.455  -5.030  0.00  0.00     0.000 A 
ATOM     31  C   UNL d   1      13.399  11.815  -4.676  0.00  0.00     0.000 A 
ATOM     32  C   UNL d   1      13.549  11.796  -3.864  0.00  0.00     0.005 A 
ENDBRANCH  25  27
ENDBRANCH   2  24
TORSDOF 7
ENDMDL
