MODEL 1
REMARK VINA RESULT:      46.7      0.000      0.000
REMARK  4 active torsions:
REMARK  status: ('A' for Active; 'I' for Inactive)
REMARK    1  A    between atoms: C_7  and  N_1 
REMARK    2  A    between atoms: C_8  and  C_7 
REMARK       I    between atoms: N_11  and  C_8 
REMARK    3  A    between atoms: C_13  and  N_11 
REMARK    4  A    between atoms: C_15  and  C_13 
ROOT
ATOM      1  C   UNL d   1     -49.772  27.068  33.407  0.00  0.00     0.148 C 
ENDROOT
BRANCH   1   2
ATOM      2  N   UNL d   1     -50.385  26.517  33.374  0.00  0.00    -0.235 N 
ATOM      3  C   UNL d   1     -51.171  26.776  33.357  0.00  0.00     0.273 A 
ATOM      4  C   UNL d   1     -51.778  26.230  33.324  0.00  0.00     0.086 A 
ATOM      5  O   UNL d   1     -51.339  27.586  33.373  0.00  0.00    -0.266 OA
ATOM      6  C   UNL d   1     -52.568  26.493  33.307  0.00  0.00     0.012 C 
ATOM      7  S   UNL d   1     -51.622  25.427  33.309  0.00  0.00    -0.077 SA
ATOM      8  C   UNL d   1     -50.845  25.165  33.326  0.00  0.00     0.086 A 
ATOM      9  C   UNL d   1     -50.221  25.704  33.358  0.00  0.00     0.273 A 
ATOM     10  C   UNL d   1     -50.679  24.358  33.310  0.00  0.00     0.012 C 
ATOM     11  O   UNL d   1     -49.440  25.445  33.376  0.00  0.00    -0.266 OA
ENDBRANCH   1   2
BRANCH   1  12
ATOM     12  C   UNL d   1     -49.338  27.157  34.101  0.00  0.00     0.297 C 
ATOM     13  N   UNL d   1     -48.886  27.830  34.230  0.00  0.00    -0.205 NA
ATOM     14  O   UNL d   1     -49.357  26.561  34.672  0.00  0.00    -0.264 OA
BRANCH  13  15
ATOM     15  C   UNL d   1     -48.451  27.926  34.918  0.00  0.00     0.102 C 
BRANCH  15  16
ATOM     16  C   UNL d   1     -48.155  28.665  35.137  0.00  0.00     0.019 A 
ATOM     17  C   UNL d   1     -48.098  29.265  34.574  0.00  0.00     0.004 A 
ATOM     18  C   UNL d   1     -47.801  30.007  34.789  0.00  0.00     0.030 A 
ATOM     19  C   UNL d   1     -47.566  30.140  35.565  0.00  0.00     0.140 A 
ATOM     20  C   UNL d   1     -47.623  29.540  36.129  0.00  0.00     0.030 A 
ATOM     21  F   UNL d   1     -47.268  30.879  35.790  0.00  0.00    -0.204 F 
ATOM     22  C   UNL d   1     -47.920  28.794  35.915  0.00  0.00     0.004 A 
ENDBRANCH  15  16
ENDBRANCH  13  15
ENDBRANCH   1  12
TORSDOF 4
ENDMDL
MODEL 2
REMARK VINA RESULT:      47.3      0.371      1.532
REMARK  4 active torsions:
REMARK  status: ('A' for Active; 'I' for Inactive)
REMARK    1  A    between atoms: C_7  and  N_1 
REMARK    2  A    between atoms: C_8  and  C_7 
REMARK       I    between atoms: N_11  and  C_8 
REMARK    3  A    between atoms: C_13  and  N_11 
REMARK    4  A    between atoms: C_15  and  C_13 
ROOT
ATOM      1  C   UNL d   1     -49.429  27.022  33.590  0.00  0.00     0.148 C 
ENDROOT
BRANCH   1   2
ATOM      2  N   UNL d   1     -50.066  26.507  33.496  0.00  0.00    -0.235 N 
ATOM      3  C   UNL d   1     -49.932  25.691  33.448  0.00  0.00     0.273 A 
ATOM      4  C   UNL d   1     -50.563  25.181  33.355  0.00  0.00     0.086 A 
ATOM      5  O   UNL d   1     -49.161  25.396  33.495  0.00  0.00    -0.266 OA
ATOM      6  C   UNL d   1     -50.427  24.361  33.308  0.00  0.00     0.012 C 
ATOM      7  S   UNL d   1     -51.331  25.463  33.308  0.00  0.00    -0.077 SA
ATOM      8  C   UNL d   1     -51.468  26.271  33.355  0.00  0.00     0.086 A 
ATOM      9  C   UNL d   1     -50.841  26.799  33.449  0.00  0.00     0.273 A 
ATOM     10  C   UNL d   1     -52.237  26.563  33.308  0.00  0.00     0.012 C 
ATOM     11  O   UNL d   1     -50.976  27.610  33.496  0.00  0.00    -0.266 OA
ENDBRANCH   1   2
BRANCH   1  12
ATOM     12  C   UNL d   1     -49.248  27.319  34.337  0.00  0.00     0.297 C 
ATOM     13  N   UNL d   1     -48.826  28.018  34.420  0.00  0.00    -0.205 NA
ATOM     14  O   UNL d   1     -49.495  26.908  35.008  0.00  0.00    -0.264 OA
BRANCH  13  15
ATOM     15  C   UNL d   1     -48.643  28.319  35.159  0.00  0.00     0.102 C 
BRANCH  15  16
ATOM     16  C   UNL d   1     -48.235  29.033  35.241  0.00  0.00     0.019 A 
ATOM     17  C   UNL d   1     -47.751  29.153  35.897  0.00  0.00     0.004 A 
ATOM     18  C   UNL d   1     -47.341  29.868  35.983  0.00  0.00     0.030 A 
ATOM     19  C   UNL d   1     -47.421  30.452  35.411  0.00  0.00     0.140 A 
ATOM     20  C   UNL d   1     -47.905  30.332  34.754  0.00  0.00     0.030 A 
ATOM     21  F   UNL d   1     -47.015  31.169  35.488  0.00  0.00    -0.204 F 
ATOM     22  C   UNL d   1     -48.318  29.616  34.666  0.00  0.00     0.004 A 
ENDBRANCH  15  16
ENDBRANCH  13  15
ENDBRANCH   1  12
TORSDOF 4
ENDMDL
