MODEL 1
REMARK VINA RESULT:      -5.8      0.000      0.000
REMARK  6 active torsions:
REMARK  status: ('A' for Active; 'I' for Inactive)
REMARK    1  A    between atoms: N_6  and  C_1 
REMARK    2  A    between atoms: C_3  and  N_6 
REMARK    3  A    between atoms: N_4  and  C_3 
REMARK       I    between atoms: C_9  and  N_4 
REMARK    4  A    between atoms: C_12  and  C_9 
REMARK    5  A    between atoms: C_10  and  C_13 
REMARK    6  A    between atoms: O_20  and  C_10 
ROOT
ATOM      1  N   UNL d   1     -48.237  11.817  22.749  0.00  0.00    -0.179 NA
ATOM      2  C   UNL d   1     -49.021  11.833  23.017  0.00  0.00     0.281 C 
ATOM      3  O   UNL d   1     -49.378  11.143  23.289  0.00  0.00    -0.265 OA
ENDROOT
BRANCH   1   4
ATOM      4  C   UNL d   1     -47.881  12.509  22.477  0.00  0.00     0.225 C 
ATOM      5  S   UNL d   1     -48.110  12.833  21.757  0.00  0.00    -0.037 SA
BRANCH   4   6
ATOM      6  N   UNL d   1     -47.288  12.879  22.932  0.00  0.00    -0.192 NA
BRANCH   6   7
ATOM      7  C   UNL d   1     -46.488  12.766  22.737  0.00  0.00     0.196 A 
ATOM      8  N   UNL d   1     -46.008  12.170  23.034  0.00  0.00    -0.221 NA
ATOM      9  C   UNL d   1     -45.255  12.261  22.696  0.00  0.00     0.090 A 
ATOM     10  C   UNL d   1     -44.550  11.830  22.784  0.00  0.00     0.020 A 
ATOM     11  C   UNL d   1     -45.280  12.914  22.193  0.00  0.00     0.050 A 
ATOM     12  C   UNL d   1     -43.875  12.057  22.367  0.00  0.00     0.002 A 
ATOM     13  C   UNL d   1     -43.905  12.716  21.862  0.00  0.00     0.001 A 
ATOM     14  C   UNL d   1     -44.605  13.141  21.777  0.00  0.00     0.008 A 
ATOM     15  S   UNL d   1     -46.054  13.225  22.224  0.00  0.00    -0.047 SA
ENDBRANCH   6   7
ENDBRANCH   4   6
ENDBRANCH   1   4
BRANCH   2  16
ATOM     16  C   UNL d   1     -49.445  12.539  23.013  0.00  0.00     0.058 A 
ATOM     17  C   UNL d   1     -49.489  12.994  23.698  0.00  0.00     0.005 A 
ATOM     18  C   UNL d   1     -49.916  13.707  23.697  0.00  0.00     0.005 A 
ATOM     19  C   UNL d   1     -50.295  13.957  23.009  0.00  0.00     0.063 A 
ATOM     20  C   UNL d   1     -50.248  13.495  22.321  0.00  0.00     0.005 A 
ATOM     21  C   UNL d   1     -49.824  12.789  22.325  0.00  0.00     0.005 A 
BRANCH  19  22
ATOM     22  C   UNL d   1     -50.727  14.670  22.996  0.00  0.00     0.296 C 
ATOM     23  O   UNL d   1     -51.060  14.948  22.295  0.00  0.00    -0.259 OA
BRANCH  22  24
ATOM     24  O   UNL d   1     -50.817  15.097  23.694  0.00  0.00    -0.296 OA
ATOM     25  C   UNL d   1     -50.933  15.920  23.667  0.00  0.00     0.185 C 
ENDBRANCH  22  24
ENDBRANCH  19  22
ENDBRANCH   2  16
TORSDOF 6
ENDMDL
MODEL 2
REMARK VINA RESULT:      -5.7      8.984     10.420
REMARK  6 active torsions:
REMARK  status: ('A' for Active; 'I' for Inactive)
REMARK    1  A    between atoms: N_6  and  C_1 
REMARK    2  A    between atoms: C_3  and  N_6 
REMARK    3  A    between atoms: N_4  and  C_3 
REMARK       I    between atoms: C_9  and  N_4 
REMARK    4  A    between atoms: C_12  and  C_9 
REMARK    5  A    between atoms: C_10  and  C_13 
REMARK    6  A    between atoms: O_20  and  C_10 
ROOT
ATOM      1  N   UNL d   1     -40.392  14.512  19.227  0.00  0.00    -0.179 NA
ATOM      2  C   UNL d   1     -40.554  14.202  18.475  0.00  0.00     0.281 C 
ATOM      3  O   UNL d   1     -41.222  13.736  18.356  0.00  0.00    -0.265 OA
ENDROOT
BRANCH   1   4
ATOM      4  C   UNL d   1     -39.723  14.978  19.344  0.00  0.00     0.225 C 
ATOM      5  S   UNL d   1     -39.722  15.764  19.100  0.00  0.00    -0.037 SA
BRANCH   4   6
ATOM      6  N   UNL d   1     -39.047  14.653  19.710  0.00  0.00    -0.192 NA
BRANCH   6   7
ATOM      7  C   UNL d   1     -38.898  14.810  20.512  0.00  0.00     0.196 A 
ATOM      8  N   UNL d   1     -39.122  14.329  21.138  0.00  0.00    -0.221 NA
ATOM      9  C   UNL d   1     -38.863  14.691  21.839  0.00  0.00     0.090 A 
ATOM     10  C   UNL d   1     -38.929  14.468  22.637  0.00  0.00     0.020 A 
ATOM     11  C   UNL d   1     -38.482  15.393  21.637  0.00  0.00     0.050 A 
ATOM     12  C   UNL d   1     -38.611  14.951  23.226  0.00  0.00     0.002 A 
ATOM     13  C   UNL d   1     -38.228  15.657  23.016  0.00  0.00     0.001 A 
ATOM     14  C   UNL d   1     -38.164  15.876  22.225  0.00  0.00     0.008 A 
ATOM     15  S   UNL d   1     -38.507  15.461  20.805  0.00  0.00    -0.047 SA
ENDBRANCH   6   7
ENDBRANCH   4   6
ENDBRANCH   1   4
BRANCH   2  16
ATOM     16  C   UNL d   1     -40.047  14.359  17.845  0.00  0.00     0.058 A 
ATOM     17  C   UNL d   1     -40.178  15.016  17.368  0.00  0.00     0.005 A 
ATOM     18  C   UNL d   1     -39.669  15.177  16.731  0.00  0.00     0.005 A 
ATOM     19  C   UNL d   1     -39.031  14.677  16.580  0.00  0.00     0.063 A 
ATOM     20  C   UNL d   1     -38.903  14.014  17.064  0.00  0.00     0.005 A 
ATOM     21  C   UNL d   1     -39.409  13.858  17.693  0.00  0.00     0.005 A 
BRANCH  19  22
ATOM     22  C   UNL d   1     -38.513  14.828  15.944  0.00  0.00     0.296 C 
ATOM     23  O   UNL d   1     -38.243  14.213  15.466  0.00  0.00    -0.259 OA
BRANCH  22  24
ATOM     24  O   UNL d   1     -38.273  15.602  15.798  0.00  0.00    -0.296 OA
ATOM     25  C   UNL d   1     -37.940  15.802  15.063  0.00  0.00     0.185 C 
ENDBRANCH  22  24
ENDBRANCH  19  22
ENDBRANCH   2  16
TORSDOF 6
ENDMDL
MODEL 3
REMARK VINA RESULT:      -4.7      1.417      2.245
REMARK  6 active torsions:
REMARK  status: ('A' for Active; 'I' for Inactive)
REMARK    1  A    between atoms: N_6  and  C_1 
REMARK    2  A    between atoms: C_3  and  N_6 
REMARK    3  A    between atoms: N_4  and  C_3 
REMARK       I    between atoms: C_9  and  N_4 
REMARK    4  A    between atoms: C_12  and  C_9 
REMARK    5  A    between atoms: C_10  and  C_13 
REMARK    6  A    between atoms: O_20  and  C_10 
ROOT
ATOM      1  N   UNL d   1     -46.940  14.580  22.572  0.00  0.00    -0.179 NA
ATOM      2  C   UNL d   1     -47.711  14.857  22.445  0.00  0.00     0.281 C 
ATOM      3  O   UNL d   1     -47.836  15.635  22.208  0.00  0.00    -0.265 OA
ENDROOT
BRANCH   1   4
ATOM      4  C   UNL d   1     -46.816  13.801  22.809  0.00  0.00     0.225 C 
ATOM      5  S   UNL d   1     -46.900  13.594  23.601  0.00  0.00    -0.037 SA
BRANCH   4   6
ATOM      6  N   UNL d   1     -46.605  13.222  22.247  0.00  0.00    -0.192 NA
BRANCH   6   7
ATOM      7  C   UNL d   1     -45.812  12.984  22.178  0.00  0.00     0.196 A 
ATOM      8  N   UNL d   1     -45.251  13.339  21.696  0.00  0.00    -0.221 NA
ATOM      9  C   UNL d   1     -44.536  12.928  21.796  0.00  0.00     0.090 A 
ATOM     10  C   UNL d   1     -43.784  13.031  21.458  0.00  0.00     0.020 A 
ATOM     11  C   UNL d   1     -44.665  12.324  22.341  0.00  0.00     0.050 A 
ATOM     12  C   UNL d   1     -43.167  12.526  21.670  0.00  0.00     0.002 A 
ATOM     13  C   UNL d   1     -43.302  11.918  22.219  0.00  0.00     0.001 A 
ATOM     14  C   UNL d   1     -44.048  11.819  22.552  0.00  0.00     0.008 A 
ATOM     15  S   UNL d   1     -45.465  12.364  22.575  0.00  0.00    -0.047 SA
ENDBRANCH   6   7
ENDBRANCH   4   6
ENDBRANCH   1   4
BRANCH   2  16
ATOM     16  C   UNL d   1     -48.354  14.353  22.555  0.00  0.00     0.058 A 
ATOM     17  C   UNL d   1     -48.644  13.916  21.921  0.00  0.00     0.005 A 
ATOM     18  C   UNL d   1     -49.293  13.407  22.029  0.00  0.00     0.005 A 
ATOM     19  C   UNL d   1     -49.644  13.342  22.772  0.00  0.00     0.063 A 
ATOM     20  C   UNL d   1     -49.347  13.786  23.408  0.00  0.00     0.005 A 
ATOM     21  C   UNL d   1     -48.705  14.288  23.299  0.00  0.00     0.005 A 
BRANCH  19  22
ATOM     22  C   UNL d   1     -50.295  12.835  22.891  0.00  0.00     0.296 C 
ATOM     23  O   UNL d   1     -51.064  13.098  22.751  0.00  0.00    -0.259 OA
BRANCH  22  24
ATOM     24  O   UNL d   1     -50.163  12.066  23.153  0.00  0.00    -0.296 OA
ATOM     25  C   UNL d   1     -50.738  11.676  23.607  0.00  0.00     0.185 C 
ENDBRANCH  22  24
ENDBRANCH  19  22
ENDBRANCH   2  16
TORSDOF 6
ENDMDL
MODEL 4
REMARK VINA RESULT:      -4.2      2.026      5.035
REMARK  6 active torsions:
REMARK  status: ('A' for Active; 'I' for Inactive)
REMARK    1  A    between atoms: N_6  and  C_1 
REMARK    2  A    between atoms: C_3  and  N_6 
REMARK    3  A    between atoms: N_4  and  C_3 
REMARK       I    between atoms: C_9  and  N_4 
REMARK    4  A    between atoms: C_12  and  C_9 
REMARK    5  A    between atoms: C_10  and  C_13 
REMARK    6  A    between atoms: O_20  and  C_10 
ROOT
ATOM      1  N   UNL d   1     -47.933  12.327  22.978  0.00  0.00    -0.179 NA
ATOM      2  C   UNL d   1     -47.235  11.893  23.083  0.00  0.00     0.281 C 
ATOM      3  O   UNL d   1     -47.254  11.167  23.471  0.00  0.00    -0.265 OA
ENDROOT
BRANCH   1   4
ATOM      4  C   UNL d   1     -47.912  13.053  22.589  0.00  0.00     0.225 C 
ATOM      5  S   UNL d   1     -47.911  13.079  21.767  0.00  0.00    -0.037 SA
BRANCH   4   6
ATOM      6  N   UNL d   1     -47.891  13.761  23.030  0.00  0.00    -0.192 NA
BRANCH   6   7
ATOM      7  C   UNL d   1     -48.591  14.191  23.151  0.00  0.00     0.196 A 
ATOM      8  N   UNL d   1     -49.299  13.878  23.425  0.00  0.00    -0.221 NA
ATOM      9  C   UNL d   1     -49.851  14.497  23.464  0.00  0.00     0.090 A 
ATOM     10  C   UNL d   1     -50.648  14.517  23.697  0.00  0.00     0.020 A 
ATOM     11  C   UNL d   1     -49.476  15.187  23.213  0.00  0.00     0.050 A 
ATOM     12  C   UNL d   1     -51.064  15.230  23.677  0.00  0.00     0.002 A 
ATOM     13  C   UNL d   1     -50.682  15.922  23.423  0.00  0.00     0.001 A 
ATOM     14  C   UNL d   1     -49.892  15.899  23.192  0.00  0.00     0.008 A 
ATOM     15  S   UNL d   1     -48.689  14.989  23.018  0.00  0.00    -0.047 SA
ENDBRANCH   6   7
ENDBRANCH   4   6
ENDBRANCH   1   4
BRANCH   2  16
ATOM     16  C   UNL d   1     -46.519  12.187  22.801  0.00  0.00     0.058 A 
ATOM     17  C   UNL d   1     -45.935  12.423  23.331  0.00  0.00     0.005 A 
ATOM     18  C   UNL d   1     -45.212  12.720  23.050  0.00  0.00     0.005 A 
ATOM     19  C   UNL d   1     -45.081  12.778  22.237  0.00  0.00     0.063 A 
ATOM     20  C   UNL d   1     -45.673  12.539  21.706  0.00  0.00     0.005 A 
ATOM     21  C   UNL d   1     -46.388  12.245  21.988  0.00  0.00     0.005 A 
BRANCH  19  22
ATOM     22  C   UNL d   1     -44.359  13.074  21.943  0.00  0.00     0.296 C 
ATOM     23  O   UNL d   1     -44.288  13.866  21.723  0.00  0.00    -0.259 OA
BRANCH  22  24
ATOM     24  O   UNL d   1     -43.715  12.567  21.874  0.00  0.00    -0.296 OA
ATOM     25  C   UNL d   1     -43.170  12.668  21.255  0.00  0.00     0.185 C 
ENDBRANCH  22  24
ENDBRANCH  19  22
ENDBRANCH   2  16
TORSDOF 6
ENDMDL
MODEL 5
REMARK VINA RESULT:      -3.4      9.135      9.741
REMARK  6 active torsions:
REMARK  status: ('A' for Active; 'I' for Inactive)
REMARK    1  A    between atoms: N_6  and  C_1 
REMARK    2  A    between atoms: C_3  and  N_6 
REMARK    3  A    between atoms: N_4  and  C_3 
REMARK       I    between atoms: C_9  and  N_4 
REMARK    4  A    between atoms: C_12  and  C_9 
REMARK    5  A    between atoms: C_10  and  C_13 
REMARK    6  A    between atoms: O_20  and  C_10 
ROOT
ATOM      1  N   UNL d   1     -38.608  14.630  18.819  0.00  0.00    -0.179 NA
ATOM      2  C   UNL d   1     -38.654  15.048  18.104  0.00  0.00     0.281 C 
ATOM      3  O   UNL d   1     -37.967  15.302  17.730  0.00  0.00    -0.265 OA
ENDROOT
BRANCH   1   4
ATOM      4  C   UNL d   1     -39.297  14.377  19.193  0.00  0.00     0.225 C 
ATOM      5  S   UNL d   1     -39.747  13.774  18.860  0.00  0.00    -0.037 SA
BRANCH   4   6
ATOM      6  N   UNL d   1     -39.538  14.732  19.908  0.00  0.00    -0.192 NA
BRANCH   6   7
ATOM      7  C   UNL d   1     -39.249  14.441  20.630  0.00  0.00     0.196 A 
ATOM      8  N   UNL d   1     -38.872  13.719  20.733  0.00  0.00    -0.221 NA
ATOM      9  C   UNL d   1     -38.676  13.650  21.538  0.00  0.00     0.090 A 
ATOM     10  C   UNL d   1     -38.293  13.050  21.966  0.00  0.00     0.020 A 
ATOM     11  C   UNL d   1     -38.934  14.332  21.921  0.00  0.00     0.050 A 
ATOM     12  C   UNL d   1     -38.173  13.138  22.778  0.00  0.00     0.002 A 
ATOM     13  C   UNL d   1     -38.435  13.827  23.160  0.00  0.00     0.001 A 
ATOM     14  C   UNL d   1     -38.814  14.420  22.733  0.00  0.00     0.008 A 
ATOM     15  S   UNL d   1     -39.292  14.822  21.348  0.00  0.00    -0.047 SA
ENDBRANCH   6   7
ENDBRANCH   4   6
ENDBRANCH   1   4
BRANCH   2  16
ATOM     16  C   UNL d   1     -39.388  15.211  17.767  0.00  0.00     0.058 A 
ATOM     17  C   UNL d   1     -39.892  15.754  18.127  0.00  0.00     0.005 A 
ATOM     18  C   UNL d   1     -40.633  15.920  17.790  0.00  0.00     0.005 A 
ATOM     19  C   UNL d   1     -40.862  15.541  17.094  0.00  0.00     0.063 A 
ATOM     20  C   UNL d   1     -40.350  14.994  16.735  0.00  0.00     0.005 A 
ATOM     21  C   UNL d   1     -39.617  14.831  17.072  0.00  0.00     0.005 A 
BRANCH  19  22
ATOM     22  C   UNL d   1     -41.603  15.700  16.747  0.00  0.00     0.296 C 
ATOM     23  O   UNL d   1     -42.247  15.920  17.213  0.00  0.00    -0.259 OA
BRANCH  22  24
ATOM     24  O   UNL d   1     -41.687  15.636  15.931  0.00  0.00    -0.296 OA
ATOM     25  C   UNL d   1     -42.441  15.539  15.596  0.00  0.00     0.185 C 
ENDBRANCH  22  24
ENDBRANCH  19  22
ENDBRANCH   2  16
TORSDOF 6
ENDMDL
MODEL 6
REMARK VINA RESULT:      -2.9      8.477      9.922
REMARK  6 active torsions:
REMARK  status: ('A' for Active; 'I' for Inactive)
REMARK    1  A    between atoms: N_6  and  C_1 
REMARK    2  A    between atoms: C_3  and  N_6 
REMARK    3  A    between atoms: N_4  and  C_3 
REMARK       I    between atoms: C_9  and  N_4 
REMARK    4  A    between atoms: C_12  and  C_9 
REMARK    5  A    between atoms: C_10  and  C_13 
REMARK    6  A    between atoms: O_20  and  C_10 
ROOT
ATOM      1  N   UNL d   1     -40.433  15.666  19.411  0.00  0.00    -0.179 NA
ATOM      2  C   UNL d   1     -40.757  15.657  20.174  0.00  0.00     0.281 C 
ATOM      3  O   UNL d   1     -41.527  15.922  20.299  0.00  0.00    -0.265 OA
ENDROOT
BRANCH   1   4
ATOM      4  C   UNL d   1     -39.664  15.401  19.287  0.00  0.00     0.225 C 
ATOM      5  S   UNL d   1     -39.030  15.911  19.406  0.00  0.00    -0.037 SA
BRANCH   4   6
ATOM      6  N   UNL d   1     -39.527  14.615  19.041  0.00  0.00    -0.192 NA
BRANCH   6   7
ATOM      7  C   UNL d   1     -39.232  14.468  18.279  0.00  0.00     0.196 A 
ATOM      8  N   UNL d   1     -39.360  14.942  17.621  0.00  0.00    -0.221 NA
ATOM      9  C   UNL d   1     -38.967  14.592  16.978  0.00  0.00     0.090 A 
ATOM     10  C   UNL d   1     -38.898  14.816  16.181  0.00  0.00     0.020 A 
ATOM     11  C   UNL d   1     -38.601  13.905  17.248  0.00  0.00     0.050 A 
ATOM     12  C   UNL d   1     -38.463  14.348  15.660  0.00  0.00     0.002 A 
ATOM     13  C   UNL d   1     -38.096  13.656  15.936  0.00  0.00     0.001 A 
ATOM     14  C   UNL d   1     -38.165  13.437  16.727  0.00  0.00     0.008 A 
ATOM     15  S   UNL d   1     -38.771  13.833  18.062  0.00  0.00    -0.047 SA
ENDBRANCH   6   7
ENDBRANCH   4   6
ENDBRANCH   1   4
BRANCH   2  16
ATOM     16  C   UNL d   1     -40.310  15.384  20.809  0.00  0.00     0.058 A 
ATOM     17  C   UNL d   1     -39.781  15.890  21.185  0.00  0.00     0.005 A 
ATOM     18  C   UNL d   1     -39.328  15.617  21.826  0.00  0.00     0.005 A 
ATOM     19  C   UNL d   1     -39.411  14.838  22.085  0.00  0.00     0.063 A 
ATOM     20  C   UNL d   1     -39.946  14.332  21.703  0.00  0.00     0.005 A 
ATOM     21  C   UNL d   1     -40.393  14.605  21.068  0.00  0.00     0.005 A 
BRANCH  19  22
ATOM     22  C   UNL d   1     -38.962  14.554  22.727  0.00  0.00     0.296 C 
ATOM     23  O   UNL d   1     -38.814  15.034  23.382  0.00  0.00    -0.259 OA
BRANCH  22  24
ATOM     24  O   UNL d   1     -38.666  13.786  22.703  0.00  0.00    -0.296 OA
ATOM     25  C   UNL d   1     -38.263  13.474  23.359  0.00  0.00     0.185 C 
ENDBRANCH  22  24
ENDBRANCH  19  22
ENDBRANCH   2  16
TORSDOF 6
ENDMDL
