MODEL 1
REMARK VINA RESULT:      60.2      0.000      0.000
REMARK  3 active torsions:
REMARK  status: ('A' for Active; 'I' for Inactive)
REMARK    1  A    between atoms: N_3  and  C_1 
REMARK       I    between atoms: C_5  and  N_3 
REMARK    2  A    between atoms: C_6  and  C_5 
REMARK    3  A    between atoms: O_19  and  C_17 
ROOT
ATOM      1  N   UNL d   1      14.086  14.407  -2.812  0.00  0.00    -0.181 NA
ATOM      2  C   UNL d   1      14.156  13.586  -2.813  0.00  0.00     0.306 C 
ATOM      3  O   UNL d   1      14.590  13.206  -2.200  0.00  0.00    -0.263 OA
ENDROOT
BRANCH   1   4
ATOM      4  C   UNL d   1      14.434  14.861  -2.220  0.00  0.00     0.197 A 
ATOM      5  N   UNL d   1      14.597  14.592  -1.454  0.00  0.00    -0.221 NA
ATOM      6  C   UNL d   1      14.945  15.226  -1.046  0.00  0.00     0.090 A 
ATOM      7  C   UNL d   1      15.221  15.287  -0.272  0.00  0.00     0.022 A 
ATOM      8  C   UNL d   1      14.990  15.865  -1.563  0.00  0.00     0.052 A 
ATOM      9  C   UNL d   1      15.546  16.007  -0.022  0.00  0.00     0.026 A 
ATOM     10  C   UNL d   1      15.592  16.639  -0.533  0.00  0.00     0.095 A 
ATOM     11  C   UNL d   1      15.316  16.585  -1.312  0.00  0.00     0.032 A 
ATOM     12  S   UNL d   1      14.675  15.630  -2.277  0.00  0.00    -0.047 SA
BRANCH  10  13
ATOM     13  O   UNL d   1      15.926  17.385  -0.281  0.00  0.00    -0.328 OA
ATOM     14  C   UNL d   1      15.743  18.079  -0.717  0.00  0.00     0.181 C 
ENDBRANCH  10  13
ENDBRANCH   1   4
BRANCH   2  15
ATOM     15  C   UNL d   1      13.807  13.133  -3.405  0.00  0.00     0.182 A 
ATOM     16  O   UNL d   1      14.040  13.249  -4.184  0.00  0.00    -0.298 OA
ATOM     17  C   UNL d   1      13.689  12.790  -4.787  0.00  0.00     0.123 A 
ATOM     18  C   UNL d   1      13.918  12.901  -5.576  0.00  0.00     0.027 A 
ATOM     19  C   UNL d   1      13.121  12.235  -4.594  0.00  0.00     0.123 A 
ATOM     20  C   UNL d   1      13.566  12.444  -6.165  0.00  0.00     0.002 A 
ATOM     21  C   UNL d   1      13.002  11.891  -5.985  0.00  0.00     0.002 A 
ATOM     22  C   UNL d   1      12.772  11.780  -5.196  0.00  0.00     0.027 A 
ATOM     23  O   UNL d   1      12.891  12.124  -3.805  0.00  0.00    -0.301 OA
ATOM     24  C   UNL d   1      13.243  12.579  -3.221  0.00  0.00     0.152 A 
ENDBRANCH   2  15
TORSDOF 3
ENDMDL
