MODEL 1
REMARK VINA RESULT:      -4.5      0.000      0.000
REMARK  6 active torsions:
REMARK  status: ('A' for Active; 'I' for Inactive)
REMARK    1  A    between atoms: S_7  and  C_1 
REMARK       I    between atoms: C_6  and  N_9 
REMARK    2  A    between atoms: C_13  and  C_6 
REMARK    3  A    between atoms: C_15  and  S_7 
REMARK    4  A    between atoms: N_9  and  C_16 
REMARK    5  A    between atoms: O_14  and  C_13 
REMARK    6  A    between atoms: C_16  and  C_15 
ROOT
ATOM      1  C   UNL d   1     -42.131-122.743 -49.598  0.00  0.00     0.049 A 
ATOM      2  N   UNL d   1     -43.241-122.921 -48.881  0.00  0.00    -0.245 NA
ATOM      3  C   UNL d   1     -42.948-122.628 -49.590  0.00  0.00     0.087 A 
ATOM      4  C   UNL d   1     -41.913-123.105 -48.896  0.00  0.00     0.025 A 
ATOM      5  C   UNL d   1     -42.603-123.218 -48.446  0.00  0.00     0.082 A 
ATOM      6  C   UNL d   1     -43.389-122.280 -50.193  0.00  0.00     0.021 C 
ATOM      7  C   UNL d   1     -41.189-123.350 -48.600  0.00  0.00     0.002 A 
ATOM      8  C   UNL d   1     -42.560-123.574 -47.704  0.00  0.00     0.019 A 
ATOM      9  C   UNL d   1     -41.147-123.706 -47.858  0.00  0.00     0.000 A 
ATOM     10  C   UNL d   1     -41.828-123.817 -47.415  0.00  0.00     0.002 A 
ENDROOT
BRANCH   1  11
ATOM     11  S   UNL d   1     -41.616-122.529 -50.208  0.00  0.00    -0.083 SA
BRANCH  11  12
ATOM     12  C   UNL d   1     -41.684-122.903 -50.950  0.00  0.00     0.056 C 
BRANCH  12  13
ATOM     13  C   UNL d   1     -41.264-122.604 -51.596  0.00  0.00     0.109 C 
BRANCH  13  14
ATOM     14  N   UNL d   1     -41.356-122.954 -52.327  0.00  0.00    -0.204 NA
ATOM     15  C   UNL d   1     -41.296-122.497 -53.007  0.00  0.00     0.304 C 
ATOM     16  O   UNL d   1     -41.144-121.686 -52.953  0.00  0.00    -0.263 OA
BRANCH  15  17
ATOM     17  C   UNL d   1     -41.390-122.856 -53.755  0.00  0.00     0.179 C 
BRANCH  17  18
ATOM     18  O   UNL d   1     -41.297-122.398 -54.437  0.00  0.00    -0.322 OA
ATOM     19  C   UNL d   1     -41.825-122.483 -55.071  0.00  0.00     0.182 C 
ENDBRANCH  17  18
ENDBRANCH  15  17
ENDBRANCH  13  14
ENDBRANCH  12  13
ENDBRANCH  11  12
ENDBRANCH   1  11
TORSDOF 6
ENDMDL
MODEL 2
REMARK VINA RESULT:      -3.9      1.755      5.240
REMARK  6 active torsions:
REMARK  status: ('A' for Active; 'I' for Inactive)
REMARK    1  A    between atoms: S_7  and  C_1 
REMARK       I    between atoms: C_6  and  N_9 
REMARK    2  A    between atoms: C_13  and  C_6 
REMARK    3  A    between atoms: C_15  and  S_7 
REMARK    4  A    between atoms: N_9  and  C_16 
REMARK    5  A    between atoms: O_14  and  C_13 
REMARK    6  A    between atoms: C_16  and  C_15 
ROOT
ATOM      1  C   UNL d   1     -41.686-122.567 -53.341  0.00  0.00     0.049 A 
ATOM      2  N   UNL d   1     -41.403-123.532 -54.217  0.00  0.00    -0.245 NA
ATOM      3  C   UNL d   1     -41.388-123.332 -53.421  0.00  0.00     0.087 A 
ATOM      4  C   UNL d   1     -41.887-122.288 -54.085  0.00  0.00     0.025 A 
ATOM      5  C   UNL d   1     -41.711-122.887 -54.634  0.00  0.00     0.082 A 
ATOM      6  C   UNL d   1     -41.123-123.810 -52.804  0.00  0.00     0.021 C 
ATOM      7  C   UNL d   1     -42.203-121.578 -54.343  0.00  0.00     0.002 A 
ATOM      8  C   UNL d   1     -41.855-122.768 -55.437  0.00  0.00     0.019 A 
ATOM      9  C   UNL d   1     -42.346-121.459 -55.147  0.00  0.00     0.000 A 
ATOM     10  C   UNL d   1     -42.173-122.051 -55.687  0.00  0.00     0.002 A 
ENDROOT
BRANCH   1  11
ATOM     11  S   UNL d   1     -41.770-122.150 -52.633  0.00  0.00    -0.083 SA
BRANCH  11  12
ATOM     12  C   UNL d   1     -41.606-122.532 -51.911  0.00  0.00     0.056 C 
BRANCH  12  13
ATOM     13  C   UNL d   1     -41.951-122.252 -51.214  0.00  0.00     0.109 C 
BRANCH  13  14
ATOM     14  N   UNL d   1     -41.756-122.602 -50.504  0.00  0.00    -0.204 NA
ATOM     15  C   UNL d   1     -42.293-122.588 -49.882  0.00  0.00     0.304 C 
ATOM     16  O   UNL d   1     -43.027-122.219 -49.974  0.00  0.00    -0.263 OA
BRANCH  15  17
ATOM     17  C   UNL d   1     -42.092-122.947 -49.155  0.00  0.00     0.179 C 
BRANCH  17  18
ATOM     18  O   UNL d   1     -42.629-122.912 -48.527  0.00  0.00    -0.322 OA
ATOM     19  C   UNL d   1     -42.463-123.307 -47.817  0.00  0.00     0.182 C 
ENDBRANCH  17  18
ENDBRANCH  15  17
ENDBRANCH  13  14
ENDBRANCH  12  13
ENDBRANCH  11  12
ENDBRANCH   1  11
TORSDOF 6
ENDMDL
