MODEL 1
REMARK VINA RESULT:      15.2      0.000      0.000
REMARK  3 active torsions:
REMARK  status: ('A' for Active; 'I' for Inactive)
REMARK    1  A    between atoms: C_2  and  N_1 
REMARK    2  A    between atoms: N_6  and  C_5 
REMARK    3  A    between atoms: C_12  and  N_6 
ROOT
ATOM      1  C   UNL d   1      15.164  13.342  -0.799  0.00  0.00     0.128 A 
ATOM      2  C   UNL d   1      14.620  12.809  -0.482  0.00  0.00     0.046 A 
ATOM      3  C   UNL d   1      14.182  12.321  -0.983  0.00  0.00     0.122 A 
ATOM      4  C   UNL d   1      14.287  12.366  -1.799  0.00  0.00     0.101 A 
ATOM      5  C   UNL d   1      15.269  13.388  -1.615  0.00  0.00     0.025 A 
ATOM      6  C   UNL d   1      14.831  12.900  -2.110  0.00  0.00     0.022 A 
ATOM      7  N   UNL d   1      13.638  11.787  -0.666  0.00  0.00    -0.146 N 
ENDROOT
BRANCH   4   8
ATOM      8  N   UNL d   1      13.849  11.878  -2.295  0.00  0.00    -0.244 NA
BRANCH   8   9
ATOM      9  C   UNL d   1      13.556  12.175  -3.006  0.00  0.00     0.081 A 
ATOM     10  C   UNL d   1      13.108  12.869  -3.011  0.00  0.00     0.019 A 
ATOM     11  C   UNL d   1      12.815  13.165  -3.722  0.00  0.00     0.002 A 
ATOM     12  C   UNL d   1      12.970  12.769  -4.430  0.00  0.00     0.000 A 
ATOM     13  C   UNL d   1      13.417  12.076  -4.424  0.00  0.00     0.002 A 
ATOM     14  C   UNL d   1      13.710  11.779  -3.713  0.00  0.00     0.019 A 
ENDBRANCH   8   9
ENDBRANCH   4   8
BRANCH   1  15
ATOM     15  N   UNL d   1      15.601  13.830  -0.298  0.00  0.00    -0.114 N 
ATOM     16  O   UNL d   1      16.335  13.578  -0.015  0.00  0.00    -0.532 OA
ATOM     17  O   UNL d   1      15.306  14.569  -0.079  0.00  0.00    -0.532 OA
ENDBRANCH   1  15
TORSDOF 3
ENDMDL
