MODEL 1
REMARK VINA RESULT:      40.7      0.000      0.000
REMARK  4 active torsions:
REMARK  status: ('A' for Active; 'I' for Inactive)
REMARK    1  A    between atoms: N_2  and  S_1 
REMARK    2  A    between atoms: C_3  and  S_1 
REMARK    3  A    between atoms: N_6  and  N_2 
REMARK    4  A    between atoms: C_9  and  N_6 
ROOT
ATOM      1  S   UNL d   1     -51.056  26.115  33.336  0.00  0.00     0.302 S 
ATOM      2  O   UNL d   1     -51.757  26.576  33.324  0.00  0.00    -0.197 OA
ATOM      3  O   UNL d   1     -50.371  25.661  33.348  0.00  0.00    -0.197 OA
ENDROOT
BRANCH   1   4
ATOM      4  N   UNL d   1     -50.596  26.813  33.341  0.00  0.00    -0.054 NA
BRANCH   4   5
ATOM      5  N   UNL d   1     -49.819  26.776  33.549  0.00  0.00    -0.137 NA
BRANCH   5   6
ATOM      6  C   UNL d   1     -49.448  27.426  33.929  0.00  0.00     0.104 A 
ATOM      7  C   UNL d   1     -49.030  27.311  34.620  0.00  0.00     0.021 A 
ATOM      8  C   UNL d   1     -48.671  27.961  34.980  0.00  0.00     0.002 A 
ATOM      9  C   UNL d   1     -48.741  28.702  34.644  0.00  0.00     0.000 A 
ATOM     10  C   UNL d   1     -49.159  28.809  33.957  0.00  0.00     0.002 A 
ATOM     11  C   UNL d   1     -48.368  29.359  35.025  0.00  0.00     0.000 C 
ATOM     12  C   UNL d   1     -49.520  28.171  33.588  0.00  0.00     0.021 A 
ENDBRANCH   5   6
ENDBRANCH   4   5
ENDBRANCH   1   4
BRANCH   1  13
ATOM     13  C   UNL d   1     -51.511  25.427  33.332  0.00  0.00     0.107 A 
ATOM     14  C   UNL d   1     -51.150  24.691  33.328  0.00  0.00     0.013 A 
ATOM     15  C   UNL d   1     -51.622  24.014  33.323  0.00  0.00     0.001 A 
ATOM     16  C   UNL d   1     -52.453  24.072  33.323  0.00  0.00     0.000 A 
ATOM     17  C   UNL d   1     -52.820  24.817  33.327  0.00  0.00     0.001 A 
ATOM     18  C   UNL d   1     -52.926  23.379  33.318  0.00  0.00     0.000 C 
ATOM     19  C   UNL d   1     -52.331  25.483  33.331  0.00  0.00     0.013 A 
ENDBRANCH   1  13
TORSDOF 4
ENDMDL
MODEL 2
REMARK VINA RESULT:      42.3      0.772      4.539
REMARK  4 active torsions:
REMARK  status: ('A' for Active; 'I' for Inactive)
REMARK    1  A    between atoms: N_2  and  S_1 
REMARK    2  A    between atoms: C_3  and  S_1 
REMARK    3  A    between atoms: N_6  and  N_2 
REMARK    4  A    between atoms: C_9  and  N_6 
ROOT
ATOM      1  S   UNL d   1     -50.501  26.683  33.782  0.00  0.00     0.302 S 
ATOM      2  O   UNL d   1     -51.158  26.883  34.263  0.00  0.00    -0.197 OA
ATOM      3  O   UNL d   1     -49.856  26.488  33.312  0.00  0.00    -0.197 OA
ENDROOT
BRANCH   1   4
ATOM      4  N   UNL d   1     -50.991  26.190  33.317  0.00  0.00    -0.054 NA
BRANCH   4   5
ATOM      5  N   UNL d   1     -50.865  25.395  33.312  0.00  0.00    -0.137 NA
BRANCH   5   6
ATOM      6  C   UNL d   1     -51.511  24.860  33.326  0.00  0.00     0.104 A 
ATOM      7  C   UNL d   1     -52.276  25.143  33.306  0.00  0.00     0.021 A 
ATOM      8  C   UNL d   1     -52.901  24.604  33.321  0.00  0.00     0.002 A 
ATOM      9  C   UNL d   1     -52.745  23.803  33.354  0.00  0.00     0.000 A 
ATOM     10  C   UNL d   1     -51.982  23.529  33.373  0.00  0.00     0.002 A 
ATOM     11  C   UNL d   1     -53.395  23.262  33.368  0.00  0.00     0.000 C 
ATOM     12  C   UNL d   1     -51.352  24.055  33.359  0.00  0.00     0.021 A 
ENDBRANCH   5   6
ENDBRANCH   4   5
ENDBRANCH   1   4
BRANCH   1  13
ATOM     13  C   UNL d   1     -50.019  27.170  34.242  0.00  0.00     0.107 A 
ATOM     14  C   UNL d   1     -49.605  27.788  33.897  0.00  0.00     0.013 A 
ATOM     15  C   UNL d   1     -49.128  28.264  34.373  0.00  0.00     0.001 A 
ATOM     16  C   UNL d   1     -49.065  28.123  35.192  0.00  0.00     0.000 A 
ATOM     17  C   UNL d   1     -49.484  27.497  35.542  0.00  0.00     0.001 A 
ATOM     18  C   UNL d   1     -48.578  28.612  35.669  0.00  0.00     0.000 C 
ATOM     19  C   UNL d   1     -49.956  27.032  35.050  0.00  0.00     0.013 A 
ENDBRANCH   1  13
TORSDOF 4
ENDMDL
