MODEL 1
REMARK VINA RESULT:      53.6      0.000      0.000
REMARK  7 active torsions:
REMARK  status: ('A' for Active; 'I' for Inactive)
REMARK    1  A    between atoms: C_2  and  C_1 
REMARK       I    between atoms: N_8  and  C_1 
REMARK    2  A    between atoms: C_5  and  C_2 
REMARK    3  A    between atoms: C_6  and  C_2 
REMARK    4  A    between atoms: N_3  and  C_9 
REMARK    5  A    between atoms: C_13  and  N_8 
REMARK    6  A    between atoms: C_9  and  C_10 
REMARK    7  A    between atoms: C_10  and  C_13 
ROOT
ATOM      1  C   UNL d   1     -55.315-100.529 -43.865  0.00  0.00     0.058 C 
ENDROOT
BRANCH   1   2
ATOM      2  C   UNL d   1     -55.036-100.367 -43.090  0.00  0.00     0.279 C 
ATOM      3  O   UNL d   1     -54.745 -99.593 -42.922  0.00  0.00    -0.265 OA
ATOM      4  N   UNL d   1     -55.046-100.960 -42.498  0.00  0.00    -0.206 NA
BRANCH   4   5
ATOM      5  C   UNL d   1     -54.771-100.793 -41.742  0.00  0.00     0.104 C 
BRANCH   5   6
ATOM      6  C   UNL d   1     -54.711-101.383 -41.177  0.00  0.00     0.040 C 
BRANCH   6   7
ATOM      7  C   UNL d   1     -55.381-101.772 -40.920  0.00  0.00     0.082 C 
BRANCH   7   8
ATOM      8  N   UNL d   1     -55.392-102.084 -40.172  0.00  0.00    -0.299 N 
ATOM      9  C   UNL d   1     -54.773-102.564 -39.899  0.00  0.00     0.107 A 
ATOM     10  C   UNL d   1     -54.793-102.879 -39.134  0.00  0.00     0.142 A 
ATOM     11  O   UNL d   1     -55.446-102.709 -38.633  0.00  0.00    -0.300 OA
ATOM     12  C   UNL d   1     -56.068-102.231 -38.900  0.00  0.00     0.142 A 
ATOM     13  C   UNL d   1     -56.040-101.921 -39.665  0.00  0.00     0.107 A 
ENDBRANCH   7   8
ENDBRANCH   6   7
ENDBRANCH   5   6
ENDBRANCH   4   5
ENDBRANCH   1   2
BRANCH   1  14
ATOM     14  C   UNL d   1     -55.117-101.232 -44.239  0.00  0.00     0.005 A 
ATOM     15  C   UNL d   1     -55.072-101.916 -43.783  0.00  0.00     0.000 A 
ATOM     16  C   UNL d   1     -54.875-102.632 -44.137  0.00  0.00     0.000 A 
ATOM     17  C   UNL d   1     -54.717-102.645 -44.996  0.00  0.00     0.000 A 
ATOM     18  C   UNL d   1     -54.770-101.941 -45.430  0.00  0.00     0.000 A 
ATOM     19  C   UNL d   1     -54.969-101.231 -45.059  0.00  0.00     0.000 A 
ENDBRANCH   1  14
BRANCH   1  20
ATOM     20  C   UNL d   1     -55.790 -99.962 -44.232  0.00  0.00     0.005 A 
ATOM     21  C   UNL d   1     -56.592 -99.935 -44.081  0.00  0.00     0.000 A 
ATOM     22  C   UNL d   1     -57.069 -99.365 -44.450  0.00  0.00     0.000 A 
ATOM     23  C   UNL d   1     -56.719 -98.815 -44.980  0.00  0.00     0.000 A 
ATOM     24  C   UNL d   1     -55.909 -98.854 -45.121  0.00  0.00     0.000 A 
ATOM     25  C   UNL d   1     -55.448 -99.423 -44.750  0.00  0.00     0.000 A 
ENDBRANCH   1  20
TORSDOF 7
ENDMDL
