MODEL 1
REMARK VINA RESULT:      -2.0      0.000      0.000
REMARK  2 active torsions:
REMARK  status: ('A' for Active; 'I' for Inactive)
REMARK    1  A    between atoms: N_9  and  C_3 
REMARK    2  A    between atoms: C_11  and  C_4 
ROOT
ATOM      1  N   UNL d   1     -41.853-122.478 -52.188  0.00  0.00    -0.196 N 
ATOM      2  C   UNL d   1     -41.825-122.389 -51.342  0.00  0.00     0.167 A 
ATOM      3  C   UNL d   1     -41.643-121.851 -52.651  0.00  0.00     0.153 A 
ATOM      4  C   UNL d   1     -42.033-123.008 -50.860  0.00  0.00     0.057 A 
ATOM      5  N   UNL d   1     -42.303-123.817 -52.018  0.00  0.00    -0.161 NA
ATOM      6  N   UNL d   1     -41.587-121.679 -51.015  0.00  0.00    -0.227 NA
ATOM      7  C   UNL d   1     -41.401-121.131 -52.332  0.00  0.00     0.057 A 
ATOM      8  C   UNL d   1     -42.275-123.731 -51.198  0.00  0.00     0.124 A 
ATOM      9  C   UNL d   1     -41.373-121.043 -51.499  0.00  0.00     0.086 A 
ATOM     10  C   UNL d   1     -41.123-120.295 -51.155  0.00  0.00     0.021 C 
ENDROOT
BRANCH   4  11
ATOM     11  C   UNL d   1     -42.005-122.921 -50.040  0.00  0.00     0.005 A 
ATOM     12  C   UNL d   1     -41.291-122.978 -49.651  0.00  0.00     0.001 A 
ATOM     13  C   UNL d   1     -41.264-122.891 -48.831  0.00  0.00     0.011 A 
ATOM     14  C   UNL d   1     -41.950-122.750 -48.414  0.00  0.00     0.058 A 
ATOM     15  C   UNL d   1     -42.664-122.695 -48.817  0.00  0.00     0.011 A 
ATOM     16 CL   UNL d   1     -41.921-122.660 -47.554  0.00  0.00    -0.082 Cl
ATOM     17  C   UNL d   1     -42.691-122.780 -49.624  0.00  0.00     0.001 A 
ENDBRANCH   4  11
BRANCH   3  18
ATOM     18  N   UNL d   1     -41.670-121.937 -53.506  0.00  0.00    -0.285 N 
ATOM     19  C   UNL d   1     -42.248-121.495 -53.962  0.00  0.00     0.108 A 
ATOM     20  C   UNL d   1     -42.272-121.583 -54.808  0.00  0.00     0.142 A 
ATOM     21  O   UNL d   1     -41.720-122.115 -55.216  0.00  0.00    -0.300 OA
ATOM     22  C   UNL d   1     -41.148-122.550 -54.740  0.00  0.00     0.142 A 
ATOM     23  C   UNL d   1     -41.124-122.462 -53.894  0.00  0.00     0.108 A 
ENDBRANCH   3  18
TORSDOF 2
ENDMDL
MODEL 2
REMARK VINA RESULT:      -1.8      2.377      4.406
REMARK  2 active torsions:
REMARK  status: ('A' for Active; 'I' for Inactive)
REMARK    1  A    between atoms: N_9  and  C_3 
REMARK    2  A    between atoms: C_11  and  C_4 
ROOT
ATOM      1  N   UNL d   1     -41.897-122.576 -51.571  0.00  0.00    -0.196 N 
ATOM      2  C   UNL d   1     -41.812-122.263 -52.357  0.00  0.00     0.167 A 
ATOM      3  C   UNL d   1     -41.726-122.100 -50.942  0.00  0.00     0.153 A 
ATOM      4  C   UNL d   1     -41.979-122.727 -53.001  0.00  0.00     0.057 A 
ATOM      5  N   UNL d   1     -42.318-123.817 -52.126  0.00  0.00    -0.161 NA
ATOM      6  N   UNL d   1     -41.561-121.493 -52.463  0.00  0.00    -0.227 NA
ATOM      7  C   UNL d   1     -41.472-121.322 -51.038  0.00  0.00     0.057 A 
ATOM      8  C   UNL d   1     -42.235-123.513 -52.888  0.00  0.00     0.124 A 
ATOM      9  C   UNL d   1     -41.388-121.013 -51.812  0.00  0.00     0.086 A 
ATOM     10  C   UNL d   1     -41.124-120.202 -51.923  0.00  0.00     0.021 C 
ENDROOT
BRANCH   4  11
ATOM     11  C   UNL d   1     -41.896-122.423 -53.763  0.00  0.00     0.005 A 
ATOM     12  C   UNL d   1     -42.467-121.926 -54.065  0.00  0.00     0.001 A 
ATOM     13  C   UNL d   1     -42.384-121.622 -54.828  0.00  0.00     0.011 A 
ATOM     14  C   UNL d   1     -41.732-121.820 -55.275  0.00  0.00     0.058 A 
ATOM     15  C   UNL d   1     -41.163-122.322 -54.960  0.00  0.00     0.011 A 
ATOM     16 CL   UNL d   1     -41.645-121.501 -56.075  0.00  0.00    -0.082 Cl
ATOM     17  C   UNL d   1     -41.244-122.622 -54.210  0.00  0.00     0.001 A 
ENDBRANCH   4  11
BRANCH   3  18
ATOM     18  N   UNL d   1     -41.811-122.413 -50.146  0.00  0.00    -0.285 N 
ATOM     19  C   UNL d   1     -41.125-122.721 -49.732  0.00  0.00     0.108 A 
ATOM     20  C   UNL d   1     -41.213-123.030 -48.944  0.00  0.00     0.142 A 
ATOM     21  O   UNL d   1     -41.989-123.039 -48.553  0.00  0.00    -0.300 OA
ATOM     22  C   UNL d   1     -42.665-122.725 -48.986  0.00  0.00     0.142 A 
ATOM     23  C   UNL d   1     -42.577-122.416 -49.774  0.00  0.00     0.108 A 
ENDBRANCH   3  18
TORSDOF 2
ENDMDL
MODEL 3
REMARK VINA RESULT:       1.0      2.633      4.585
REMARK  2 active torsions:
REMARK  status: ('A' for Active; 'I' for Inactive)
REMARK    1  A    between atoms: N_9  and  C_3 
REMARK    2  A    between atoms: C_11  and  C_4 
ROOT
ATOM      1  N   UNL d   1     -42.250-122.992 -49.867  0.00  0.00    -0.196 N 
ATOM      2  C   UNL d   1     -42.248-122.731 -50.677  0.00  0.00     0.167 A 
ATOM      3  C   UNL d   1     -42.810-122.699 -49.366  0.00  0.00     0.153 A 
ATOM      4  C   UNL d   1     -41.692-123.015 -51.195  0.00  0.00     0.057 A 
ATOM      5  N   UNL d   1     -41.124-123.817 -50.145  0.00  0.00    -0.161 NA
ATOM      6  N   UNL d   1     -42.808-122.194 -50.932  0.00  0.00    -0.227 NA
ATOM      7  C   UNL d   1     -43.379-122.157 -49.613  0.00  0.00     0.057 A 
ATOM      8  C   UNL d   1     -41.123-123.564 -50.930  0.00  0.00     0.124 A 
ATOM      9  C   UNL d   1     -43.378-121.899 -50.410  0.00  0.00     0.086 A 
ATOM     10  C   UNL d   1     -43.968-121.334 -50.678  0.00  0.00     0.021 C 
ENDROOT
BRANCH   4  11
ATOM     11  C   UNL d   1     -41.691-122.762 -51.980  0.00  0.00     0.005 A 
ATOM     12  C   UNL d   1     -41.962-123.259 -52.567  0.00  0.00     0.001 A 
ATOM     13  C   UNL d   1     -41.961-123.006 -53.352  0.00  0.00     0.011 A 
ATOM     14  C   UNL d   1     -41.689-122.260 -53.538  0.00  0.00     0.058 A 
ATOM     15  C   UNL d   1     -41.418-121.767 -52.938  0.00  0.00     0.011 A 
ATOM     16 CL   UNL d   1     -41.688-121.995 -54.361  0.00  0.00    -0.082 Cl
ATOM     17  C   UNL d   1     -41.419-122.017 -52.165  0.00  0.00     0.001 A 
ENDBRANCH   4  11
BRANCH   3  18
ATOM     18  N   UNL d   1     -42.815-122.961 -48.546  0.00  0.00    -0.285 N 
ATOM     19  C   UNL d   1     -42.260-122.622 -47.986  0.00  0.00     0.108 A 
ATOM     20  C   UNL d   1     -42.267-122.883 -47.176  0.00  0.00     0.142 A 
ATOM     21  O   UNL d   1     -42.829-123.489 -46.909  0.00  0.00    -0.300 OA
ATOM     22  C   UNL d   1     -43.378-123.817 -47.488  0.00  0.00     0.142 A 
ATOM     23  C   UNL d   1     -43.371-123.555 -48.298  0.00  0.00     0.108 A 
ENDBRANCH   3  18
TORSDOF 2
ENDMDL
