MODEL 1
REMARK VINA RESULT:      50.4      0.000      0.000
REMARK  8 active torsions:
REMARK  status: ('A' for Active; 'I' for Inactive)
REMARK    1  A    between atoms: N_6  and  C_1 
REMARK    2  A    between atoms: N_2  and  C_3 
REMARK       I    between atoms: C_4  and  N_2 
REMARK    3  A    between atoms: C_3  and  N_6 
REMARK    4  A    between atoms: C_10  and  C_4 
REMARK    5  A    between atoms: C_9  and  C_7 
REMARK    6  A    between atoms: C_12  and  C_9 
REMARK    7  A    between atoms: O_17  and  C_12 
REMARK    8  A    between atoms: C_21  and  O_17 
ROOT
ATOM      1  C   UNL d   1      59.666  49.527  50.757  0.00  0.00     0.225 C 
ATOM      2  S   UNL d   1      59.592  49.458  51.577  0.00  0.00    -0.037 SA
ENDROOT
BRANCH   1   3
ATOM      3  N   UNL d   1      58.972  49.493  50.255  0.00  0.00    -0.179 NA
ATOM      4  C   UNL d   1      58.213  49.582  50.602  0.00  0.00     0.281 C 
ATOM      5  O   UNL d   1      58.147  49.704  51.445  0.00  0.00    -0.265 OA
BRANCH   4   6
ATOM      6  C   UNL d   1      57.531  49.556  50.161  0.00  0.00     0.058 A 
ATOM      7  C   UNL d   1      56.815  49.397  50.495  0.00  0.00     0.005 A 
ATOM      8  C   UNL d   1      56.770  49.257  51.305  0.00  0.00     0.000 C 
ATOM      9  C   UNL d   1      56.145  49.377  50.036  0.00  0.00     0.000 A 
ATOM     10  C   UNL d   1      56.197  49.520  49.215  0.00  0.00     0.000 A 
ATOM     11  C   UNL d   1      56.921  49.687  48.843  0.00  0.00     0.000 A 
ATOM     12  C   UNL d   1      57.613  49.708  49.317  0.00  0.00     0.005 A 
ENDBRANCH   4   6
ENDBRANCH   1   3
BRANCH   1  13
ATOM     13  N   UNL d   1      60.397  49.629  50.390  0.00  0.00    -0.192 NA
BRANCH  13  14
ATOM     14  C   UNL d   1      60.905  48.968  50.346  0.00  0.00     0.196 A 
ATOM     15  N   UNL d   1      60.756  48.152  50.470  0.00  0.00    -0.220 NA
ATOM     16  C   UNL d   1      61.450  47.747  50.355  0.00  0.00     0.095 A 
ATOM     17  C   UNL d   1      62.060  48.299  50.154  0.00  0.00     0.058 A 
ATOM     18  S   UNL d   1      61.703  49.045  50.154  0.00  0.00    -0.046 SA
BRANCH  16  19
ATOM     19  C   UNL d   1      61.568  46.933  50.417  0.00  0.00     0.088 C 
BRANCH  19  20
ATOM     20  C   UNL d   1      61.730  46.471  49.767  0.00  0.00     0.302 C 
ATOM     21  O   UNL d   1      62.051  46.788  49.084  0.00  0.00    -0.259 OA
BRANCH  20  22
ATOM     22  O   UNL d   1      61.570  45.654  49.785  0.00  0.00    -0.271 OA
BRANCH  22  23
ATOM     23  C   UNL d   1      61.466  45.255  49.025  0.00  0.00     0.126 C 
ATOM     24  C   UNL d   1      61.651  44.570  48.979  0.00  0.00     0.029 C 
ENDBRANCH  22  23
ENDBRANCH  20  22
ENDBRANCH  19  20
ENDBRANCH  16  19
ENDBRANCH  13  14
ENDBRANCH   1  13
TORSDOF 8
ENDMDL
