MODEL 1
REMARK VINA RESULT:      11.4      0.000      0.000
REMARK  1 active torsions:
REMARK  status: ('A' for Active; 'I' for Inactive)
REMARK    1  A    between atoms: C_6  and  C_1 
ROOT
ATOM      1  C   UNL d   1      14.257  12.191  -1.390  0.00  0.00     0.085 A 
ATOM      2  C   UNL d   1      13.629  11.966  -0.899  0.00  0.00     0.137 A 
ATOM      3  C   UNL d   1      14.017  12.141  -2.160  0.00  0.00     0.013 A 
ATOM      4  C   UNL d   1      13.239  11.884  -2.151  0.00  0.00     0.031 A 
ATOM      5  S   UNL d   1      13.011  11.780  -1.365  0.00  0.00    -0.066 SA
ATOM      6  C   UNL d   1      14.400  12.294  -2.877  0.00  0.00     0.001 A 
ATOM      7  C   UNL d   1      12.842  11.779  -2.843  0.00  0.00     0.006 A 
ATOM      8  N   UNL d   1      13.631  11.935  -0.036  0.00  0.00    -0.141 N 
ATOM      9  C   UNL d   1      14.014  12.192  -3.573  0.00  0.00     0.000 A 
ATOM     10  C   UNL d   1      13.202  11.924  -3.552  0.00  0.00     0.001 A 
ATOM     11  C   UNL d   1      12.770  11.810  -4.297  0.00  0.00     0.000 C 
ENDROOT
BRANCH   1  12
ATOM     12  C   UNL d   1      15.016  12.431  -1.112  0.00  0.00     0.299 C 
ATOM     13  O   UNL d   1      15.658  11.926  -1.183  0.00  0.00    -0.264 OA
ATOM     14  N   UNL d   1      15.126  13.195  -0.757  0.00  0.00    -0.102 N 
ENDBRANCH   1  12
TORSDOF 1
ENDMDL
