MODEL 1
REMARK VINA RESULT:      89.7      0.000      0.000
REMARK  10 active torsions:
REMARK  status: ('A' for Active; 'I' for Inactive)
REMARK    1  A    between atoms: C_15  and  C_3 
REMARK       I    between atoms: C_8  and  N_7 
REMARK    2  A    between atoms: O_29  and  C_8 
REMARK       I    between atoms: N_9  and  C_11 
REMARK    3  A    between atoms: S_17  and  C_10 
REMARK    4  A    between atoms: C_11  and  C_23 
REMARK       I    between atoms: C_13  and  N_26 
REMARK    5  A    between atoms: C_16  and  C_13 
REMARK    6  A    between atoms: C_30  and  C_15 
REMARK    7  A    between atoms: C_23  and  S_17 
REMARK    8  A    between atoms: N_26  and  C_30 
REMARK    9  A    between atoms: C_35  and  O_29 
REMARK   10  A    between atoms: O_34  and  C_31 
ROOT
ATOM      1  N   UNL d   1     -50.577  26.827  34.398  0.00  0.00    -0.191 N 
ATOM      2  C   UNL d   1     -50.393  26.572  33.628  0.00  0.00     0.187 A 
ATOM      3  C   UNL d   1     -51.351  26.592  34.569  0.00  0.00     0.188 A 
ATOM      4  N   UNL d   1     -50.015  27.240  34.840  0.00  0.00    -0.156 NA
ATOM      5  N   UNL d   1     -51.058  26.180  33.332  0.00  0.00    -0.127 NA
ATOM      6  N   UNL d   1     -51.648  26.190  33.906  0.00  0.00    -0.127 NA
ATOM      7  C   UNL d   1     -49.269  27.399  34.513  0.00  0.00     0.131 A 
ATOM      8  C   UNL d   1     -49.653  26.733  33.314  0.00  0.00     0.043 A 
ATOM      9  C   UNL d   1     -49.088  27.145  33.752  0.00  0.00     0.031 A 
ENDROOT
BRANCH   7  10
ATOM     10  S   UNL d   1     -48.706  27.815  34.962  0.00  0.00    -0.061 SA
BRANCH  10  11
ATOM     11  C   UNL d   1     -48.495  28.590  34.744  0.00  0.00     0.098 C 
BRANCH  11  12
ATOM     12  C   UNL d   1     -48.065  29.062  35.278  0.00  0.00     0.272 C 
ATOM     13  N   UNL d   1     -47.962  29.857  35.111  0.00  0.00    -0.269 N 
ATOM     14  C   UNL d   1     -48.281  30.168  34.426  0.00  0.00     0.102 A 
ATOM     15  C   UNL d   1     -47.541  30.336  35.627  0.00  0.00     0.102 A 
ATOM     16  C   UNL d   1     -48.171  30.978  34.263  0.00  0.00     0.104 A 
ATOM     17  N   UNL d   1     -47.743  31.450  34.795  0.00  0.00    -0.249 N 
ATOM     18  C   UNL d   1     -47.433  31.125  35.471  0.00  0.00     0.104 A 
ATOM     19  C   UNL d   1     -47.639  32.256  34.623  0.00  0.00     0.378 C 
ATOM     20  O   UNL d   1     -47.212  32.727  35.154  0.00  0.00    -0.237 OA
ATOM     21  O   UNL d   1     -47.751  28.734  35.963  0.00  0.00    -0.266 OA
BRANCH  19  22
ATOM     22  O   UNL d   1     -47.956  32.572  33.939  0.00  0.00    -0.257 OA
BRANCH  22  23
ATOM     23  C   UNL d   1     -47.813  33.360  33.762  0.00  0.00     0.128 C 
ATOM     24  C   UNL d   1     -47.133  33.571  33.351  0.00  0.00     0.029 C 
ENDBRANCH  22  23
ENDBRANCH  19  22
ENDBRANCH  11  12
ENDBRANCH  10  11
ENDBRANCH   7  10
BRANCH   3  25
ATOM     25  C   UNL d   1     -51.752  26.735  35.278  0.00  0.00     0.061 C 
BRANCH  25  26
ATOM     26  C   UNL d   1     -51.374  26.608  36.005  0.00  0.00     0.105 C 
BRANCH  26  27
ATOM     27  N   UNL d   1     -51.764  26.187  36.598  0.00  0.00    -0.206 NA
ATOM     28  C   UNL d   1     -51.607  26.358  37.397  0.00  0.00     0.279 C 
ATOM     29  O   UNL d   1     -51.057  26.953  37.587  0.00  0.00    -0.265 OA
BRANCH  28  30
ATOM     30  C   UNL d   1     -51.994  25.940  37.990  0.00  0.00     0.058 A 
ATOM     31  C   UNL d   1     -52.643  25.468  37.798  0.00  0.00     0.007 A 
ATOM     32  C   UNL d   1     -53.035  25.047  38.388  0.00  0.00     0.024 A 
ATOM     33  C   UNL d   1     -52.774  25.102  39.172  0.00  0.00     0.094 A 
ATOM     34  C   UNL d   1     -52.126  25.574  39.364  0.00  0.00     0.024 A 
ATOM     35  C   UNL d   1     -51.735  25.995  38.766  0.00  0.00     0.007 A 
BRANCH  33  36
ATOM     36  O   UNL d   1     -53.163  24.683  39.761  0.00  0.00    -0.328 OA
ATOM     37  C   UNL d   1     -53.412  23.915  39.627  0.00  0.00     0.181 C 
ENDBRANCH  33  36
ENDBRANCH  28  30
ENDBRANCH  26  27
ENDBRANCH  25  26
ENDBRANCH   3  25
TORSDOF 10
ENDMDL
