MODEL 1
REMARK VINA RESULT:      -9.8      0.000      0.000
REMARK  3 active torsions:
REMARK  status: ('A' for Active; 'I' for Inactive)
REMARK    1  A    between atoms: C_12  and  C_9 
REMARK    2  A    between atoms: O_26  and  C_19 
REMARK    3  A    between atoms: O_27  and  C_22 
ROOT
ATOM      1  C   UNL d   1      53.814  33.168  54.410  0.00  0.00     0.156 A 
ATOM      2  C   UNL d   1      53.125  33.485  54.089  0.00  0.00     0.091 A 
ATOM      3  N   UNL d   1      54.315  33.637  54.863  0.00  0.00    -0.241 N 
ATOM      4  N   UNL d   1      53.438  34.742  54.676  0.00  0.00    -0.224 N 
ATOM      5  C   UNL d   1      54.127  34.422  54.995  0.00  0.00     0.343 A 
ATOM      6  C   UNL d   1      52.939  34.277  54.225  0.00  0.00     0.271 A 
ATOM      7  C   UNL d   1      52.812  32.229  53.503  0.00  0.00     0.056 A 
ATOM      8  N   UNL d   1      54.001  32.380  54.276  0.00  0.00    -0.228 NA
ATOM      9  C   UNL d   1      52.626  33.020  53.638  0.00  0.00     0.012 A 
ATOM     10  C   UNL d   1      53.508  31.909  53.827  0.00  0.00     0.082 A 
ATOM     11  C   UNL d   1      52.312  31.761  53.050  0.00  0.00     0.193 A 
ATOM     12  C   UNL d   1      53.695  31.121  53.693  0.00  0.00    -0.003 A 
ATOM     13  C   UNL d   1      53.197  30.647  53.240  0.00  0.00     0.042 A 
ATOM     14  O   UNL d   1      54.628  34.894  55.449  0.00  0.00    -0.245 OA
ATOM     15  C   UNL d   1      52.506  30.969  52.920  0.00  0.00     0.019 A 
ATOM     16  O   UNL d   1      52.419  34.540  53.990  0.00  0.00    -0.266 OA
ATOM     17  O   UNL d   1      51.708  32.046  52.772  0.00  0.00    -0.287 OA
ATOM     18  C   UNL d   1      55.002  33.317  55.182  0.00  0.00     0.105 C 
ATOM     19  C   UNL d   1      53.252  35.534  54.812  0.00  0.00     0.107 C 
ATOM     20  C   UNL d   1      53.750  30.390  53.496  0.00  0.00     0.009 C 
ATOM     21  C   UNL d   1      52.693  30.181  52.786  0.00  0.00     0.009 C 
ENDROOT
BRANCH   9  22
ATOM     22  C   UNL d   1      51.896  33.360  53.300  0.00  0.00     0.003 A 
ATOM     23  C   UNL d   1      51.895  33.774  52.430  0.00  0.00     0.026 A 
ATOM     24  C   UNL d   1      51.138  34.099  52.136  0.00  0.00     0.116 A 
ATOM     25  C   UNL d   1      50.433  34.041  52.622  0.00  0.00     0.116 A 
ATOM     26  C   UNL d   1      50.466  33.661  53.404  0.00  0.00     0.026 A 
ATOM     27  C   UNL d   1      51.210  33.340  53.696  0.00  0.00     0.002 A 
BRANCH  24  28
ATOM     28  O   UNL d   1      51.114  34.473  51.362  0.00  0.00    -0.326 OA
ATOM     29  C   UNL d   1      51.838  34.563  50.896  0.00  0.00     0.181 C 
ENDBRANCH  24  28
BRANCH  25  30
ATOM     30  O   UNL d   1      49.701  34.362  52.326  0.00  0.00    -0.326 OA
ATOM     31  C   UNL d   1      49.179  34.833  52.837  0.00  0.00     0.181 C 
ENDBRANCH  25  30
ENDBRANCH   9  22
TORSDOF 3
ENDMDL
MODEL 2
REMARK VINA RESULT:      -7.8      0.880      2.888
REMARK  3 active torsions:
REMARK  status: ('A' for Active; 'I' for Inactive)
REMARK    1  A    between atoms: C_12  and  C_9 
REMARK    2  A    between atoms: O_26  and  C_19 
REMARK    3  A    between atoms: O_27  and  C_22 
ROOT
ATOM      1  C   UNL d   1      53.557  31.548  53.837  0.00  0.00     0.156 A 
ATOM      2  C   UNL d   1      52.898  31.959  53.563  0.00  0.00     0.091 A 
ATOM      3  N   UNL d   1      53.642  30.747  53.679  0.00  0.00    -0.241 N 
ATOM      4  N   UNL d   1      52.408  30.762  52.970  0.00  0.00    -0.224 N 
ATOM      5  C   UNL d   1      53.069  30.355  53.246  0.00  0.00     0.343 A 
ATOM      6  C   UNL d   1      52.322  31.560  53.127  0.00  0.00     0.271 A 
ATOM      7  C   UNL d   1      53.387  33.154  54.155  0.00  0.00     0.056 A 
ATOM      8  N   UNL d   1      54.132  31.943  54.272  0.00  0.00    -0.228 NA
ATOM      9  C   UNL d   1      52.812  32.757  53.719  0.00  0.00     0.012 A 
ATOM     10  C   UNL d   1      54.053  32.739  54.432  0.00  0.00     0.082 A 
ATOM     11  C   UNL d   1      53.303  33.956  54.313  0.00  0.00     0.193 A 
ATOM     12  C   UNL d   1      54.627  33.134  54.867  0.00  0.00    -0.003 A 
ATOM     13  C   UNL d   1      54.547  33.937  55.028  0.00  0.00     0.042 A 
ATOM     14  O   UNL d   1      53.152  29.550  53.086  0.00  0.00    -0.245 OA
ATOM     15  C   UNL d   1      53.884  34.346  54.750  0.00  0.00     0.019 A 
ATOM     16  O   UNL d   1      51.812  31.853  52.907  0.00  0.00    -0.266 OA
ATOM     17  O   UNL d   1      52.722  34.310  54.069  0.00  0.00    -0.287 OA
ATOM     18  C   UNL d   1      54.302  30.340  53.955  0.00  0.00     0.105 C 
ATOM     19  C   UNL d   1      51.833  30.364  52.534  0.00  0.00     0.107 C 
ATOM     20  C   UNL d   1      55.077  33.610  55.250  0.00  0.00     0.009 C 
ATOM     21  C   UNL d   1      54.458  34.741  55.185  0.00  0.00     0.009 C 
ENDROOT
BRANCH   9  22
ATOM     22  C   UNL d   1      52.112  33.188  53.426  0.00  0.00     0.003 A 
ATOM     23  C   UNL d   1      52.113  33.612  52.561  0.00  0.00     0.026 A 
ATOM     24  C   UNL d   1      51.387  34.032  52.314  0.00  0.00     0.116 A 
ATOM     25  C   UNL d   1      50.709  34.054  52.839  0.00  0.00     0.116 A 
ATOM     26  C   UNL d   1      50.738  33.661  53.615  0.00  0.00     0.026 A 
ATOM     27  C   UNL d   1      51.452  33.247  53.861  0.00  0.00     0.002 A 
BRANCH  24  28
ATOM     28  O   UNL d   1      51.365  34.417  51.545  0.00  0.00    -0.326 OA
ATOM     29  C   UNL d   1      52.100  34.579  51.115  0.00  0.00     0.181 C 
ENDBRANCH  24  28
BRANCH  25  30
ATOM     30  O   UNL d   1      50.006  34.466  52.587  0.00  0.00    -0.326 OA
ATOM     31  C   UNL d   1      49.489  34.863  53.164  0.00  0.00     0.181 C 
ENDBRANCH  25  30
ENDBRANCH   9  22
TORSDOF 3
ENDMDL
MODEL 3
REMARK VINA RESULT:      -7.0      1.401      3.424
REMARK  3 active torsions:
REMARK  status: ('A' for Active; 'I' for Inactive)
REMARK    1  A    between atoms: C_12  and  C_9 
REMARK    2  A    between atoms: O_26  and  C_19 
REMARK    3  A    between atoms: O_27  and  C_22 
ROOT
ATOM      1  C   UNL d   1      51.710  32.694  53.053  0.00  0.00     0.156 A 
ATOM      2  C   UNL d   1      52.366  33.004  53.445  0.00  0.00     0.091 A 
ATOM      3  N   UNL d   1      51.104  33.190  52.805  0.00  0.00    -0.241 N 
ATOM      4  N   UNL d   1      51.805  34.307  53.339  0.00  0.00    -0.224 N 
ATOM      5  C   UNL d   1      51.152  33.993  52.947  0.00  0.00     0.343 A 
ATOM      6  C   UNL d   1      52.410  33.815  53.587  0.00  0.00     0.271 A 
ATOM      7  C   UNL d   1      52.926  31.702  53.551  0.00  0.00     0.056 A 
ATOM      8  N   UNL d   1      51.664  31.887  52.911  0.00  0.00    -0.228 NA
ATOM      9  C   UNL d   1      52.971  32.512  53.693  0.00  0.00     0.012 A 
ATOM     10  C   UNL d   1      52.264  31.390  53.155  0.00  0.00     0.082 A 
ATOM     11  C   UNL d   1      53.532  31.207  53.799  0.00  0.00     0.193 A 
ATOM     12  C   UNL d   1      52.218  30.582  53.013  0.00  0.00    -0.003 A 
ATOM     13  C   UNL d   1      52.823  30.082  53.260  0.00  0.00     0.042 A 
ATOM     14  O   UNL d   1      50.544  34.492  52.699  0.00  0.00    -0.245 OA
ATOM     15  C   UNL d   1      53.479  30.396  53.653  0.00  0.00     0.019 A 
ATOM     16  O   UNL d   1      52.900  34.073  53.884  0.00  0.00    -0.266 OA
ATOM     17  O   UNL d   1      54.104  31.486  54.142  0.00  0.00    -0.287 OA
ATOM     18  C   UNL d   1      50.451  32.877  52.414  0.00  0.00     0.105 C 
ATOM     19  C   UNL d   1      51.850  35.118  53.481  0.00  0.00     0.107 C 
ATOM     20  C   UNL d   1      52.298  29.831  52.946  0.00  0.00     0.009 C 
ATOM     21  C   UNL d   1      53.433  29.589  53.510  0.00  0.00     0.009 C 
ENDROOT
BRANCH   9  22
ATOM     22  C   UNL d   1      53.663  32.844  54.108  0.00  0.00     0.003 A 
ATOM     23  C   UNL d   1      54.457  33.102  53.626  0.00  0.00     0.026 A 
ATOM     24  C   UNL d   1      55.124  33.429  54.088  0.00  0.00     0.116 A 
ATOM     25  C   UNL d   1      55.052  33.509  54.939  0.00  0.00     0.116 A 
ATOM     26  C   UNL d   1      54.322  33.268  55.346  0.00  0.00     0.026 A 
ATOM     27  C   UNL d   1      53.664  32.945  54.894  0.00  0.00     0.002 A 
BRANCH  24  28
ATOM     28  O   UNL d   1      55.842  33.666  53.679  0.00  0.00    -0.326 OA
ATOM     29  C   UNL d   1      55.938  33.507  52.833  0.00  0.00     0.181 C 
ENDBRANCH  24  28
BRANCH  25  30
ATOM     30  O   UNL d   1      55.708  33.830  55.380  0.00  0.00    -0.326 OA
ATOM     31  C   UNL d   1      55.602  34.126  56.190  0.00  0.00     0.181 C 
ENDBRANCH  25  30
ENDBRANCH   9  22
TORSDOF 3
ENDMDL
