MODEL 1
REMARK VINA RESULT:      -4.8      0.000      0.000
REMARK  6 active torsions:
REMARK  status: ('A' for Active; 'I' for Inactive)
REMARK       I    between atoms: N_2  and  C_1 
REMARK    1  A    between atoms: C_3  and  C_1 
REMARK    2  A    between atoms: C_5  and  N_2 
REMARK    3  A    between atoms: C_6  and  C_3 
REMARK    4  A    between atoms: C_8  and  C_5 
REMARK    5  A    between atoms: O_7  and  C_6 
REMARK    6  A    between atoms: C_9  and  O_7 
ROOT
ATOM      1  C   UNL d   1      58.657   0.056  30.108  0.00  0.00     0.330 C 
ATOM      2  N   UNL d   1      58.833  -0.421  29.467  0.00  0.00    -0.362 NA
ATOM      3  O   UNL d   1      59.258   0.359  30.569  0.00  0.00    -0.251 OA
ENDROOT
BRANCH   1   4
ATOM      4  C   UNL d   1      57.881   0.227  30.282  0.00  0.00     0.103 C 
BRANCH   4   5
ATOM      5  C   UNL d   1      57.599   0.095  31.052  0.00  0.00     0.129 C 
BRANCH   5   6
ATOM      6  O   UNL d   1      56.779   0.121  31.203  0.00  0.00    -0.305 OA
BRANCH   6   7
ATOM      7  C   UNL d   1      56.482  -0.127  31.934  0.00  0.00     0.100 A 
ATOM      8  C   UNL d   1      56.231   0.418  32.475  0.00  0.00     0.025 A 
ATOM      9  C   UNL d   1      55.930   0.176  33.217  0.00  0.00     0.002 A 
ATOM     10  C   UNL d   1      55.896  -0.636  33.382  0.00  0.00     0.000 A 
ATOM     11  C   UNL d   1      56.147  -1.182  32.842  0.00  0.00     0.002 A 
ATOM     12  C   UNL d   1      56.442  -0.937  32.114  0.00  0.00     0.025 A 
ENDBRANCH   6   7
ENDBRANCH   5   6
ENDBRANCH   4   5
ENDBRANCH   1   4
BRANCH   2  13
ATOM     13  C   UNL d   1      58.993  -0.903  28.820  0.00  0.00     0.165 C 
BRANCH  13  14
ATOM     14  C   UNL d   1      59.341  -1.640  28.913  0.00  0.00     0.032 A 
ATOM     15  C   UNL d   1      58.867  -2.311  28.990  0.00  0.00     0.003 A 
ATOM     16  C   UNL d   1      59.220  -3.059  29.084  0.00  0.00     0.000 A 
ATOM     17  C   UNL d   1      60.044  -3.129  29.101  0.00  0.00     0.000 A 
ATOM     18  C   UNL d   1      60.509  -2.458  29.024  0.00  0.00     0.000 A 
ATOM     19  C   UNL d   1      60.156  -1.710  28.930  0.00  0.00     0.003 A 
ENDBRANCH  13  14
ENDBRANCH   2  13
TORSDOF 6
ENDMDL
MODEL 2
REMARK VINA RESULT:      -4.5      0.880      4.716
REMARK  6 active torsions:
REMARK  status: ('A' for Active; 'I' for Inactive)
REMARK       I    between atoms: N_2  and  C_1 
REMARK    1  A    between atoms: C_3  and  C_1 
REMARK    2  A    between atoms: C_5  and  N_2 
REMARK    3  A    between atoms: C_6  and  C_3 
REMARK    4  A    between atoms: C_8  and  C_5 
REMARK    5  A    between atoms: O_7  and  C_6 
REMARK    6  A    between atoms: C_9  and  O_7 
ROOT
ATOM      1  C   UNL d   1      57.608   0.415  30.704  0.00  0.00     0.330 C 
ATOM      2  N   UNL d   1      57.474   0.368  31.510  0.00  0.00    -0.362 NA
ATOM      3  O   UNL d   1      57.018   0.682  30.207  0.00  0.00    -0.251 OA
ENDROOT
BRANCH   1   4
ATOM      4  C   UNL d   1      58.330   0.194  30.402  0.00  0.00     0.103 C 
BRANCH   4   5
ATOM      5  C   UNL d   1      58.373  -0.454  29.884  0.00  0.00     0.129 C 
BRANCH   5   6
ATOM      6  O   UNL d   1      59.069  -0.587  29.445  0.00  0.00    -0.305 OA
BRANCH   6   7
ATOM      7  C   UNL d   1      59.286  -1.356  29.232  0.00  0.00     0.100 A 
ATOM      8  C   UNL d   1      60.066  -1.546  29.142  0.00  0.00     0.025 A 
ATOM      9  C   UNL d   1      60.295  -2.322  28.927  0.00  0.00     0.002 A 
ATOM     10  C   UNL d   1      59.701  -2.889  28.809  0.00  0.00     0.000 A 
ATOM     11  C   UNL d   1      58.921  -2.699  28.900  0.00  0.00     0.002 A 
ATOM     12  C   UNL d   1      58.703  -1.935  29.111  0.00  0.00     0.025 A 
ENDBRANCH   6   7
ENDBRANCH   5   6
ENDBRANCH   4   5
ENDBRANCH   1   4
BRANCH   2  13
ATOM     13  C   UNL d   1      57.355   0.315  32.322  0.00  0.00     0.165 C 
BRANCH  13  14
ATOM     14  C   UNL d   1      56.665  -0.003  32.633  0.00  0.00     0.032 A 
ATOM     15  C   UNL d   1      56.100   0.494  32.971  0.00  0.00     0.003 A 
ATOM     16  C   UNL d   1      55.400   0.170  33.286  0.00  0.00     0.000 A 
ATOM     17  C   UNL d   1      55.273  -0.647  33.259  0.00  0.00     0.000 A 
ATOM     18  C   UNL d   1      55.839  -1.135  32.921  0.00  0.00     0.000 A 
ATOM     19  C   UNL d   1      56.539  -0.811  32.606  0.00  0.00     0.003 A 
ENDBRANCH  13  14
ENDBRANCH   2  13
TORSDOF 6
ENDMDL
MODEL 3
REMARK VINA RESULT:      -4.3      1.267      1.807
REMARK  6 active torsions:
REMARK  status: ('A' for Active; 'I' for Inactive)
REMARK       I    between atoms: N_2  and  C_1 
REMARK    1  A    between atoms: C_3  and  C_1 
REMARK    2  A    between atoms: C_5  and  N_2 
REMARK    3  A    between atoms: C_6  and  C_3 
REMARK    4  A    between atoms: C_8  and  C_5 
REMARK    5  A    between atoms: O_7  and  C_6 
REMARK    6  A    between atoms: C_9  and  O_7 
ROOT
ATOM      1  C   UNL d   1      57.770  -0.605  30.436  0.00  0.00     0.330 C 
ATOM      2  N   UNL d   1      58.161  -0.297  29.787  0.00  0.00    -0.362 NA
ATOM      3  O   UNL d   1      57.559  -1.393  30.451  0.00  0.00    -0.251 OA
ENDROOT
BRANCH   1   4
ATOM      4  C   UNL d   1      57.592  -0.121  31.066  0.00  0.00     0.103 C 
BRANCH   4   5
ATOM      5  C   UNL d   1      57.010  -0.359  31.609  0.00  0.00     0.129 C 
BRANCH   5   6
ATOM      6  O   UNL d   1      56.999  -0.029  32.375  0.00  0.00    -0.305 OA
BRANCH   6   7
ATOM      7  C   UNL d   1      56.302  -0.034  32.820  0.00  0.00     0.100 A 
ATOM      8  C   UNL d   1      55.956  -0.736  33.021  0.00  0.00     0.025 A 
ATOM      9  C   UNL d   1      55.250  -0.750  33.472  0.00  0.00     0.002 A 
ATOM     10  C   UNL d   1      54.917  -0.027  33.705  0.00  0.00     0.000 A 
ATOM     11  C   UNL d   1      55.263   0.674  33.503  0.00  0.00     0.002 A 
ATOM     12  C   UNL d   1      55.956   0.682  33.060  0.00  0.00     0.025 A 
ENDBRANCH   6   7
ENDBRANCH   5   6
ENDBRANCH   4   5
ENDBRANCH   1   4
BRANCH   2  13
ATOM     13  C   UNL d   1      58.555   0.027  29.142  0.00  0.00     0.165 C 
BRANCH  13  14
ATOM     14  C   UNL d   1      59.350  -0.127  29.006  0.00  0.00     0.032 A 
ATOM     15  C   UNL d   1      59.923   0.396  29.289  0.00  0.00     0.003 A 
ATOM     16  C   UNL d   1      60.729   0.240  29.152  0.00  0.00     0.000 A 
ATOM     17  C   UNL d   1      60.955  -0.437  28.733  0.00  0.00     0.000 A 
ATOM     18  C   UNL d   1      60.380  -0.952  28.455  0.00  0.00     0.000 A 
ATOM     19  C   UNL d   1      59.574  -0.796  28.592  0.00  0.00     0.003 A 
ENDBRANCH  13  14
ENDBRANCH   2  13
TORSDOF 6
ENDMDL
MODEL 4
REMARK VINA RESULT:      -4.0      1.065      4.771
REMARK  6 active torsions:
REMARK  status: ('A' for Active; 'I' for Inactive)
REMARK       I    between atoms: N_2  and  C_1 
REMARK    1  A    between atoms: C_3  and  C_1 
REMARK    2  A    between atoms: C_5  and  N_2 
REMARK    3  A    between atoms: C_6  and  C_3 
REMARK    4  A    between atoms: C_8  and  C_5 
REMARK    5  A    between atoms: O_7  and  C_6 
REMARK    6  A    between atoms: C_9  and  O_7 
ROOT
ATOM      1  C   UNL d   1      57.918   0.660  31.330  0.00  0.00     0.330 C 
ATOM      2  N   UNL d   1      57.147   0.664  31.604  0.00  0.00    -0.362 NA
ATOM      3  O   UNL d   1      58.540   0.678  31.858  0.00  0.00    -0.251 OA
ENDROOT
BRANCH   1   4
ATOM      4  C   UNL d   1      58.060   0.637  30.529  0.00  0.00     0.103 C 
BRANCH   4   5
ATOM      5  C   UNL d   1      58.553   0.043  30.221  0.00  0.00     0.129 C 
BRANCH   5   6
ATOM      6  O   UNL d   1      58.661  -0.017  29.396  0.00  0.00    -0.305 OA
BRANCH   6   7
ATOM      7  C   UNL d   1      59.179  -0.583  29.085  0.00  0.00     0.100 A 
ATOM      8  C   UNL d   1      59.892  -0.354  28.781  0.00  0.00     0.025 A 
ATOM      9  C   UNL d   1      60.422  -0.920  28.464  0.00  0.00     0.002 A 
ATOM     10  C   UNL d   1      60.196  -1.718  28.471  0.00  0.00     0.000 A 
ATOM     11  C   UNL d   1      59.483  -1.946  28.775  0.00  0.00     0.002 A 
ATOM     12  C   UNL d   1      58.967  -1.386  29.085  0.00  0.00     0.025 A 
ENDBRANCH   6   7
ENDBRANCH   5   6
ENDBRANCH   4   5
ENDBRANCH   1   4
BRANCH   2  13
ATOM     13  C   UNL d   1      56.366   0.668  31.863  0.00  0.00     0.165 C 
BRANCH  13  14
ATOM     14  C   UNL d   1      56.111   0.161  32.456  0.00  0.00     0.032 A 
ATOM     15  C   UNL d   1      56.148  -0.656  32.341  0.00  0.00     0.003 A 
ATOM     16  C   UNL d   1      55.890  -1.171  32.942  0.00  0.00     0.000 A 
ATOM     17  C   UNL d   1      55.597  -0.864  33.653  0.00  0.00     0.000 A 
ATOM     18  C   UNL d   1      55.563  -0.052  33.760  0.00  0.00     0.000 A 
ATOM     19  C   UNL d   1      55.822   0.463  33.159  0.00  0.00     0.003 A 
ENDBRANCH  13  14
ENDBRANCH   2  13
TORSDOF 6
ENDMDL
MODEL 5
REMARK VINA RESULT:      -2.5      8.360      9.634
REMARK  6 active torsions:
REMARK  status: ('A' for Active; 'I' for Inactive)
REMARK       I    between atoms: N_2  and  C_1 
REMARK    1  A    between atoms: C_3  and  C_1 
REMARK    2  A    between atoms: C_5  and  N_2 
REMARK    3  A    between atoms: C_6  and  C_3 
REMARK    4  A    between atoms: C_8  and  C_5 
REMARK    5  A    between atoms: O_7  and  C_6 
REMARK    6  A    between atoms: C_9  and  O_7 
ROOT
ATOM      1  C   UNL d   1      59.279  -9.476  34.260  0.00  0.00     0.330 C 
ATOM      2  N   UNL d   1      59.289  -9.070  34.971  0.00  0.00    -0.362 NA
ATOM      3  O   UNL d   1      59.965  -9.809  33.970  0.00  0.00    -0.251 OA
ENDROOT
BRANCH   1   4
ATOM      4  C   UNL d   1      58.583  -9.545  33.845  0.00  0.00     0.103 C 
BRANCH   4   5
ATOM      5  C   UNL d   1      58.609  -9.736  33.036  0.00  0.00     0.129 C 
BRANCH   5   6
ATOM      6  O   UNL d   1      57.902  -9.772  32.597  0.00  0.00    -0.305 OA
BRANCH   6   7
ATOM      7  C   UNL d   1      57.926  -9.783  31.770  0.00  0.00     0.100 A 
ATOM      8  C   UNL d   1      58.637  -9.783  31.386  0.00  0.00     0.025 A 
ATOM      9  C   UNL d   1      58.670  -9.794  30.550  0.00  0.00     0.002 A 
ATOM     10  C   UNL d   1      57.957  -9.804  30.127  0.00  0.00     0.000 A 
ATOM     11  C   UNL d   1      57.246  -9.804  30.511  0.00  0.00     0.002 A 
ATOM     12  C   UNL d   1      57.219  -9.793  31.333  0.00  0.00     0.025 A 
ENDBRANCH   6   7
ENDBRANCH   5   6
ENDBRANCH   4   5
ENDBRANCH   1   4
BRANCH   2  13
ATOM     13  C   UNL d   1      59.281  -8.659  35.683  0.00  0.00     0.165 C 
BRANCH  13  14
ATOM     14  C   UNL d   1      59.680  -7.946  35.768  0.00  0.00     0.032 A 
ATOM     15  C   UNL d   1      60.458  -7.942  36.041  0.00  0.00     0.003 A 
ATOM     16  C   UNL d   1      60.863  -7.218  36.127  0.00  0.00     0.000 A 
ATOM     17  C   UNL d   1      60.484  -6.507  35.939  0.00  0.00     0.000 A 
ATOM     18  C   UNL d   1      59.710  -6.519  35.669  0.00  0.00     0.000 A 
ATOM     19  C   UNL d   1      59.305  -7.242  35.583  0.00  0.00     0.003 A 
ENDBRANCH  13  14
ENDBRANCH   2  13
TORSDOF 6
ENDMDL
MODEL 6
REMARK VINA RESULT:      -1.9      8.701      9.101
REMARK  6 active torsions:
REMARK  status: ('A' for Active; 'I' for Inactive)
REMARK       I    between atoms: N_2  and  C_1 
REMARK    1  A    between atoms: C_3  and  C_1 
REMARK    2  A    between atoms: C_5  and  N_2 
REMARK    3  A    between atoms: C_6  and  C_3 
REMARK    4  A    between atoms: C_8  and  C_5 
REMARK    5  A    between atoms: O_7  and  C_6 
REMARK    6  A    between atoms: C_9  and  O_7 
ROOT
ATOM      1  C   UNL d   1      59.037  -9.752  32.787  0.00  0.00     0.330 C 
ATOM      2  N   UNL d   1      58.397  -9.785  32.278  0.00  0.00    -0.362 NA
ATOM      3  O   UNL d   1      59.796  -9.770  32.490  0.00  0.00    -0.251 OA
ENDROOT
BRANCH   1   4
ATOM      4  C   UNL d   1      58.911  -9.700  33.589  0.00  0.00     0.103 C 
BRANCH   4   5
ATOM      5  C   UNL d   1      59.417  -9.228  34.049  0.00  0.00     0.129 C 
BRANCH   5   6
ATOM      6  O   UNL d   1      59.163  -8.955  34.796  0.00  0.00    -0.305 OA
BRANCH   6   7
ATOM      7  C   UNL d   1      59.645  -8.452  35.241  0.00  0.00     0.100 A 
ATOM      8  C   UNL d   1      59.322  -7.822  35.630  0.00  0.00     0.025 A 
ATOM      9  C   UNL d   1      59.803  -7.308  36.084  0.00  0.00     0.002 A 
ATOM     10  C   UNL d   1      60.617  -7.462  36.122  0.00  0.00     0.000 A 
ATOM     11  C   UNL d   1      60.940  -8.092  35.733  0.00  0.00     0.002 A 
ATOM     12  C   UNL d   1      60.462  -8.594  35.290  0.00  0.00     0.025 A 
ENDBRANCH   6   7
ENDBRANCH   5   6
ENDBRANCH   4   5
ENDBRANCH   1   4
BRANCH   2  13
ATOM     13  C   UNL d   1      57.743  -9.818  31.780  0.00  0.00     0.165 C 
BRANCH  13  14
ATOM     14  C   UNL d   1      57.828  -9.817  30.964  0.00  0.00     0.032 A 
ATOM     15  C   UNL d   1      58.583  -9.818  30.631  0.00  0.00     0.003 A 
ATOM     16  C   UNL d   1      58.670  -9.817  29.802  0.00  0.00     0.000 A 
ATOM     17  C   UNL d   1      58.001  -9.815  29.316  0.00  0.00     0.000 A 
ATOM     18  C   UNL d   1      57.253  -9.814  29.654  0.00  0.00     0.000 A 
ATOM     19  C   UNL d   1      57.167  -9.815  30.482  0.00  0.00     0.003 A 
ENDBRANCH  13  14
ENDBRANCH   2  13
TORSDOF 6
ENDMDL
