MODEL 1
REMARK VINA RESULT:      44.5      0.000      0.000
REMARK  5 active torsions:
REMARK  status: ('A' for Active; 'I' for Inactive)
REMARK    1  A    between atoms: N_6  and  C_1 
REMARK    2  A    between atoms: C_12  and  C_2 
REMARK       I    between atoms: C_9  and  N_6 
REMARK       I    between atoms: C_11  and  N_7 
REMARK    3  A    between atoms: C_8  and  C_9 
REMARK    4  A    between atoms: O_24  and  C_11 
REMARK    5  A    between atoms: C_25  and  O_24 
ROOT
ATOM      1  C   UNL d   1      46.027 -16.451  43.400  0.00  0.00     0.119 A 
ATOM      2  C   UNL d   1      46.055 -17.198  43.751  0.00  0.00     0.084 A 
ATOM      3  C   UNL d   1      46.235 -17.352  42.441  0.00  0.00     0.049 A 
ATOM      4  C   UNL d   1      46.184 -17.754  43.145  0.00  0.00     0.016 A 
ATOM      5  S   UNL d   1      46.140 -16.547  42.581  0.00  0.00    -0.066 SA
ATOM      6  N   UNL d   1      46.441 -18.591  41.752  0.00  0.00    -0.251 N 
ATOM      7  C   UNL d   1      46.571 -19.021  41.049  0.00  0.00     0.378 C 
ATOM      8  C   UNL d   1      46.365 -17.776  41.727  0.00  0.00     0.091 A 
ATOM      9  C   UNL d   1      46.260 -18.582  43.177  0.00  0.00     0.020 A 
ATOM     10  C   UNL d   1      46.388 -18.991  42.471  0.00  0.00     0.085 A 
ATOM     11  O   UNL d   1      46.623 -18.621  40.330  0.00  0.00    -0.237 OA
ENDROOT
BRANCH   1  12
ATOM     12  N   UNL d   1      45.909 -15.734  43.790  0.00  0.00    -0.201 NA
ATOM     13  C   UNL d   1      46.050 -15.024  43.400  0.00  0.00     0.286 C 
ATOM     14  O   UNL d   1      46.311 -15.026  42.611  0.00  0.00    -0.265 OA
BRANCH  13  15
ATOM     15  C   UNL d   1      45.932 -14.307  43.790  0.00  0.00     0.088 A 
ATOM     16  S   UNL d   1      45.290 -13.780  43.684  0.00  0.00    -0.071 SA
ATOM     17  C   UNL d   1      45.408 -13.133  44.195  0.00  0.00     0.087 A 
ATOM     18 CL   UNL d   1      44.898 -12.469  44.274  0.00  0.00    -0.075 Cl
ATOM     19  C   UNL d   1      46.110 -13.261  44.609  0.00  0.00     0.019 A 
ATOM     20  C   UNL d   1      46.425 -13.986  44.353  0.00  0.00     0.013 A 
ENDBRANCH  13  15
ENDBRANCH   1  12
BRANCH   2  21
ATOM     21  C   UNL d   1      45.969 -17.361  44.552  0.00  0.00     0.299 C 
ATOM     22  O   UNL d   1      46.563 -17.751  44.955  0.00  0.00    -0.264 OA
ATOM     23  N   UNL d   1      45.282 -17.130  44.949  0.00  0.00    -0.102 N 
ENDBRANCH   2  21
BRANCH   7  24
ATOM     24  O   UNL d   1      46.647 -19.841  41.071  0.00  0.00    -0.257 OA
BRANCH  24  25
ATOM     25  C   UNL d   1      46.646 -20.277  40.371  0.00  0.00     0.128 C 
ATOM     26  C   UNL d   1      46.108 -20.111  39.772  0.00  0.00     0.029 C 
ENDBRANCH  24  25
ENDBRANCH   7  24
TORSDOF 5
ENDMDL
