MODEL 1
REMARK VINA RESULT:      -8.4      0.000      0.000
REMARK  6 active torsions:
REMARK  status: ('A' for Active; 'I' for Inactive)
REMARK    1  A    between atoms: S_4  and  C_1 
REMARK    2  A    between atoms: C_9  and  N_2 
REMARK    3  A    between atoms: C_11  and  S_4 
REMARK    4  A    between atoms: C_6  and  C_11 
REMARK       I    between atoms: N_8  and  C_6 
REMARK    5  A    between atoms: C_12  and  N_8 
REMARK    6  A    between atoms: O_18  and  C_13 
ROOT
ATOM      1  S   UNL d   1      52.609  32.967  53.156  0.00  0.00    -0.044 SA
ENDROOT
BRANCH   1   2
ATOM      2  C   UNL d   1      52.980  32.231  53.231  0.00  0.00     0.180 A 
ATOM      3  N   UNL d   1      53.634  32.070  53.695  0.00  0.00    -0.284 N 
ATOM      4  C   UNL d   1      53.814  31.269  53.600  0.00  0.00     0.103 A 
ATOM      5  C   UNL d   1      53.259  30.938  53.069  0.00  0.00     0.120 A 
ATOM      6  N   UNL d   1      52.756  31.537  52.851  0.00  0.00    -0.219 NA
BRANCH   3   7
ATOM      7  C   UNL d   1      54.063  32.581  54.180  0.00  0.00     0.066 A 
ATOM      8  C   UNL d   1      53.854  32.676  54.965  0.00  0.00     0.018 A 
ATOM      9  C   UNL d   1      54.283  33.187  55.450  0.00  0.00     0.002 A 
ATOM     10  C   UNL d   1      54.920  33.604  55.151  0.00  0.00     0.000 A 
ATOM     11  C   UNL d   1      55.133  33.511  54.359  0.00  0.00     0.002 A 
ATOM     12  C   UNL d   1      54.705  32.999  53.874  0.00  0.00     0.018 A 
ENDBRANCH   3   7
ENDBRANCH   1   2
BRANCH   1  13
ATOM     13  C   UNL d   1      52.036  33.088  52.573  0.00  0.00     0.101 C 
BRANCH  13  14
ATOM     14  C   UNL d   1      51.511  33.704  52.631  0.00  0.00     0.286 C 
ATOM     15  N   UNL d   1      50.711  33.552  52.695  0.00  0.00    -0.208 NA
ATOM     16  O   UNL d   1      51.790  34.478  52.626  0.00  0.00    -0.265 OA
BRANCH  15  17
ATOM     17  C   UNL d   1      50.176  34.169  52.754  0.00  0.00     0.085 A 
ATOM     18  C   UNL d   1      49.719  34.386  52.099  0.00  0.00     0.021 A 
ATOM     19  C   UNL d   1      49.178  35.008  52.152  0.00  0.00     0.026 A 
ATOM     20  C   UNL d   1      49.095  35.413  52.863  0.00  0.00     0.094 A 
ATOM     21  C   UNL d   1      49.559  35.186  53.515  0.00  0.00     0.026 A 
ATOM     22  C   UNL d   1      50.089  34.575  53.458  0.00  0.00     0.021 A 
BRANCH  20  23
ATOM     23  O   UNL d   1      48.549  36.038  52.913  0.00  0.00    -0.328 OA
ATOM     24  C   UNL d   1      48.102  36.126  53.603  0.00  0.00     0.181 C 
ENDBRANCH  20  23
ENDBRANCH  15  17
ENDBRANCH  13  14
ENDBRANCH   1  13
TORSDOF 6
ENDMDL
MODEL 2
REMARK VINA RESULT:      -7.8      1.029      2.110
REMARK  6 active torsions:
REMARK  status: ('A' for Active; 'I' for Inactive)
REMARK    1  A    between atoms: S_4  and  C_1 
REMARK    2  A    between atoms: C_9  and  N_2 
REMARK    3  A    between atoms: C_11  and  S_4 
REMARK    4  A    between atoms: C_6  and  C_11 
REMARK       I    between atoms: N_8  and  C_6 
REMARK    5  A    between atoms: C_12  and  N_8 
REMARK    6  A    between atoms: O_18  and  C_13 
ROOT
ATOM      1  S   UNL d   1      52.453  32.835  53.443  0.00  0.00    -0.044 SA
ENDROOT
BRANCH   1   2
ATOM      2  C   UNL d   1      53.264  32.769  53.595  0.00  0.00     0.180 A 
ATOM      3  N   UNL d   1      53.688  32.070  53.630  0.00  0.00    -0.284 N 
ATOM      4  C   UNL d   1      54.474  32.267  53.794  0.00  0.00     0.103 A 
ATOM      5  C   UNL d   1      54.527  33.099  53.861  0.00  0.00     0.120 A 
ATOM      6  N   UNL d   1      53.780  33.393  53.737  0.00  0.00    -0.219 NA
BRANCH   3   7
ATOM      7  C   UNL d   1      53.422  31.297  53.526  0.00  0.00     0.066 A 
ATOM      8  C   UNL d   1      53.224  31.026  52.780  0.00  0.00     0.018 A 
ATOM      9  C   UNL d   1      52.957  30.252  52.676  0.00  0.00     0.002 A 
ATOM     10  C   UNL d   1      52.888  29.749  53.317  0.00  0.00     0.000 A 
ATOM     11  C   UNL d   1      53.087  30.020  54.072  0.00  0.00     0.002 A 
ATOM     12  C   UNL d   1      53.354  30.793  54.176  0.00  0.00     0.018 A 
ENDBRANCH   3   7
ENDBRANCH   1   2
BRANCH   1  13
ATOM     13  C   UNL d   1      52.069  33.561  53.536  0.00  0.00     0.101 C 
BRANCH  13  14
ATOM     14  C   UNL d   1      51.329  33.680  53.224  0.00  0.00     0.286 C 
ATOM     15  N   UNL d   1      51.175  34.353  52.788  0.00  0.00    -0.208 NA
ATOM     16  O   UNL d   1      50.740  33.120  53.351  0.00  0.00    -0.265 OA
BRANCH  15  17
ATOM     17  C   UNL d   1      50.430  34.479  52.471  0.00  0.00     0.085 A 
ATOM     18  C   UNL d   1      50.261  34.231  51.700  0.00  0.00     0.021 A 
ATOM     19  C   UNL d   1      49.511  34.355  51.375  0.00  0.00     0.026 A 
ATOM     20  C   UNL d   1      48.932  34.729  51.824  0.00  0.00     0.094 A 
ATOM     21  C   UNL d   1      49.114  34.973  52.597  0.00  0.00     0.026 A 
ATOM     22  C   UNL d   1      49.850  34.849  52.912  0.00  0.00     0.021 A 
BRANCH  20  23
ATOM     23  O   UNL d   1      48.179  34.852  51.493  0.00  0.00    -0.328 OA
ATOM     24  C   UNL d   1      47.755  35.530  51.703  0.00  0.00     0.181 C 
ENDBRANCH  20  23
ENDBRANCH  15  17
ENDBRANCH  13  14
ENDBRANCH   1  13
TORSDOF 6
ENDMDL
MODEL 3
REMARK VINA RESULT:      -6.6      2.157      5.159
REMARK  6 active torsions:
REMARK  status: ('A' for Active; 'I' for Inactive)
REMARK    1  A    between atoms: S_4  and  C_1 
REMARK    2  A    between atoms: C_9  and  N_2 
REMARK    3  A    between atoms: C_11  and  S_4 
REMARK    4  A    between atoms: C_6  and  C_11 
REMARK       I    between atoms: N_8  and  C_6 
REMARK    5  A    between atoms: C_12  and  N_8 
REMARK    6  A    between atoms: O_18  and  C_13 
ROOT
ATOM      1  S   UNL d   1      52.957  33.400  53.634  0.00  0.00    -0.044 SA
ENDROOT
BRANCH   1   2
ATOM      2  C   UNL d   1      52.908  34.215  53.769  0.00  0.00     0.180 A 
ATOM      3  N   UNL d   1      52.323  34.712  53.489  0.00  0.00    -0.284 N 
ATOM      4  C   UNL d   1      52.496  35.474  53.758  0.00  0.00     0.103 A 
ATOM      5  C   UNL d   1      53.199  35.438  54.209  0.00  0.00     0.120 A 
ATOM      6  N   UNL d   1      53.440  34.663  54.208  0.00  0.00    -0.219 NA
BRANCH   3   7
ATOM      7  C   UNL d   1      51.667  34.528  53.023  0.00  0.00     0.066 A 
ATOM      8  C   UNL d   1      51.744  34.455  52.213  0.00  0.00     0.018 A 
ATOM      9  C   UNL d   1      51.088  34.271  51.747  0.00  0.00     0.002 A 
ATOM     10  C   UNL d   1      50.355  34.160  52.092  0.00  0.00     0.000 A 
ATOM     11  C   UNL d   1      50.273  34.233  52.911  0.00  0.00     0.002 A 
ATOM     12  C   UNL d   1      50.929  34.417  53.376  0.00  0.00     0.018 A 
ENDBRANCH   3   7
ENDBRANCH   1   2
BRANCH   1  13
ATOM     13  C   UNL d   1      53.638  32.982  53.845  0.00  0.00     0.101 C 
BRANCH  13  14
ATOM     14  C   UNL d   1      53.599  32.190  54.022  0.00  0.00     0.286 C 
ATOM     15  N   UNL d   1      53.440  31.649  53.432  0.00  0.00    -0.208 NA
ATOM     16  O   UNL d   1      53.720  31.941  54.797  0.00  0.00    -0.265 OA
BRANCH  15  17
ATOM     17  C   UNL d   1      53.400  30.848  53.605  0.00  0.00     0.085 A 
ATOM     18  C   UNL d   1      52.665  30.481  53.694  0.00  0.00     0.021 A 
ATOM     19  C   UNL d   1      52.617  29.674  53.868  0.00  0.00     0.026 A 
ATOM     20  C   UNL d   1      53.309  29.237  53.952  0.00  0.00     0.094 A 
ATOM     21  C   UNL d   1      54.042  29.618  53.860  0.00  0.00     0.026 A 
ATOM     22  C   UNL d   1      54.084  30.409  53.690  0.00  0.00     0.021 A 
BRANCH  20  23
ATOM     23  O   UNL d   1      53.258  28.426  54.128  0.00  0.00    -0.328 OA
ATOM     24  C   UNL d   1      53.431  28.169  54.894  0.00  0.00     0.181 C 
ENDBRANCH  20  23
ENDBRANCH  15  17
ENDBRANCH  13  14
ENDBRANCH   1  13
TORSDOF 6
ENDMDL
MODEL 4
REMARK VINA RESULT:      -6.6      1.765      5.616
REMARK  6 active torsions:
REMARK  status: ('A' for Active; 'I' for Inactive)
REMARK    1  A    between atoms: S_4  and  C_1 
REMARK    2  A    between atoms: C_9  and  N_2 
REMARK    3  A    between atoms: C_11  and  S_4 
REMARK    4  A    between atoms: C_6  and  C_11 
REMARK       I    between atoms: N_8  and  C_6 
REMARK    5  A    between atoms: C_12  and  N_8 
REMARK    6  A    between atoms: O_18  and  C_13 
ROOT
ATOM      1  S   UNL d   1      49.176  34.842  52.479  0.00  0.00    -0.044 SA
ENDROOT
BRANCH   1   2
ATOM      2  C   UNL d   1      48.543  35.084  52.004  0.00  0.00     0.180 A 
ATOM      3  N   UNL d   1      47.906  35.536  52.249  0.00  0.00    -0.284 N 
ATOM      4  C   UNL d   1      47.413  35.642  51.595  0.00  0.00     0.103 A 
ATOM      5  C   UNL d   1      47.756  35.248  50.942  0.00  0.00     0.120 A 
ATOM      6  N   UNL d   1      48.446  34.911  51.206  0.00  0.00    -0.219 NA
BRANCH   3   7
ATOM      7  C   UNL d   1      47.749  35.846  52.997  0.00  0.00     0.066 A 
ATOM      8  C   UNL d   1      48.252  36.399  53.328  0.00  0.00     0.018 A 
ATOM      9  C   UNL d   1      48.095  36.709  54.076  0.00  0.00     0.002 A 
ATOM     10  C   UNL d   1      47.435  36.466  54.494  0.00  0.00     0.000 A 
ATOM     11  C   UNL d   1      46.925  35.907  54.163  0.00  0.00     0.002 A 
ATOM     12  C   UNL d   1      47.082  35.597  53.415  0.00  0.00     0.018 A 
ENDBRANCH   3   7
ENDBRANCH   1   2
BRANCH   1  13
ATOM     13  C   UNL d   1      49.805  34.419  52.152  0.00  0.00     0.101 C 
BRANCH  13  14
ATOM     14  C   UNL d   1      50.445  34.211  52.606  0.00  0.00     0.286 C 
ATOM     15  N   UNL d   1      51.201  34.360  52.338  0.00  0.00    -0.208 NA
ATOM     16  O   UNL d   1      50.323  33.850  53.336  0.00  0.00    -0.265 OA
BRANCH  15  17
ATOM     17  C   UNL d   1      51.851  34.152  52.792  0.00  0.00     0.085 A 
ATOM     18  C   UNL d   1      52.225  34.719  53.263  0.00  0.00     0.021 A 
ATOM     19  C   UNL d   1      52.880  34.515  53.724  0.00  0.00     0.026 A 
ATOM     20  C   UNL d   1      53.159  33.741  53.712  0.00  0.00     0.094 A 
ATOM     21  C   UNL d   1      52.774  33.180  53.234  0.00  0.00     0.026 A 
ATOM     22  C   UNL d   1      52.132  33.384  52.784  0.00  0.00     0.021 A 
BRANCH  20  23
ATOM     23  O   UNL d   1      53.818  33.540  54.176  0.00  0.00    -0.328 OA
ATOM     24  C   UNL d   1      53.782  32.865  54.652  0.00  0.00     0.181 C 
ENDBRANCH  20  23
ENDBRANCH  15  17
ENDBRANCH  13  14
ENDBRANCH   1  13
TORSDOF 6
ENDMDL
MODEL 5
REMARK VINA RESULT:      -6.1      1.525      1.943
REMARK  6 active torsions:
REMARK  status: ('A' for Active; 'I' for Inactive)
REMARK    1  A    between atoms: S_4  and  C_1 
REMARK    2  A    between atoms: C_9  and  N_2 
REMARK    3  A    between atoms: C_11  and  S_4 
REMARK    4  A    between atoms: C_6  and  C_11 
REMARK       I    between atoms: N_8  and  C_6 
REMARK    5  A    between atoms: C_12  and  N_8 
REMARK    6  A    between atoms: O_18  and  C_13 
ROOT
ATOM      1  S   UNL d   1      51.466  33.942  52.778  0.00  0.00    -0.044 SA
ENDROOT
BRANCH   1   2
ATOM      2  C   UNL d   1      52.062  33.386  52.920  0.00  0.00     0.180 A 
ATOM      3  N   UNL d   1      52.712  33.495  53.405  0.00  0.00    -0.284 N 
ATOM      4  C   UNL d   1      53.158  32.799  53.381  0.00  0.00     0.103 A 
ATOM      5  C   UNL d   1      52.771  32.259  52.873  0.00  0.00     0.120 A 
ATOM      6  N   UNL d   1      52.103  32.631  52.599  0.00  0.00    -0.219 NA
BRANCH   3   7
ATOM      7  C   UNL d   1      52.921  34.158  53.850  0.00  0.00     0.066 A 
ATOM      8  C   UNL d   1      53.124  34.857  53.477  0.00  0.00     0.018 A 
ATOM      9  C   UNL d   1      53.332  35.519  53.922  0.00  0.00     0.002 A 
ATOM     10  C   UNL d   1      53.338  35.483  54.739  0.00  0.00     0.000 A 
ATOM     11  C   UNL d   1      53.134  34.778  55.119  0.00  0.00     0.002 A 
ATOM     12  C   UNL d   1      52.926  34.116  54.674  0.00  0.00     0.018 A 
ENDBRANCH   3   7
ENDBRANCH   1   2
BRANCH   1  13
ATOM     13  C   UNL d   1      50.717  33.696  52.533  0.00  0.00     0.101 C 
BRANCH  13  14
ATOM     14  C   UNL d   1      50.151  34.240  52.323  0.00  0.00     0.286 C 
ATOM     15  N   UNL d   1      49.505  34.363  52.807  0.00  0.00    -0.208 NA
ATOM     16  O   UNL d   1      50.236  34.664  51.622  0.00  0.00    -0.265 OA
BRANCH  15  17
ATOM     17  C   UNL d   1      48.931  34.910  52.600  0.00  0.00     0.085 A 
ATOM     18  C   UNL d   1      48.756  35.538  53.108  0.00  0.00     0.021 A 
ATOM     19  C   UNL d   1      48.178  36.093  52.906  0.00  0.00     0.026 A 
ATOM     20  C   UNL d   1      47.777  36.017  52.192  0.00  0.00     0.094 A 
ATOM     21  C   UNL d   1      47.962  35.382  51.689  0.00  0.00     0.026 A 
ATOM     22  C   UNL d   1      48.529  34.840  51.892  0.00  0.00     0.021 A 
BRANCH  20  23
ATOM     23  O   UNL d   1      47.196  36.578  51.991  0.00  0.00    -0.328 OA
ATOM     24  C   UNL d   1      46.454  36.534  52.353  0.00  0.00     0.181 C 
ENDBRANCH  20  23
ENDBRANCH  15  17
ENDBRANCH  13  14
ENDBRANCH   1  13
TORSDOF 6
ENDMDL
MODEL 6
REMARK VINA RESULT:      -6.0      2.319      4.863
REMARK  6 active torsions:
REMARK  status: ('A' for Active; 'I' for Inactive)
REMARK    1  A    between atoms: S_4  and  C_1 
REMARK    2  A    between atoms: C_9  and  N_2 
REMARK    3  A    between atoms: C_11  and  S_4 
REMARK    4  A    between atoms: C_6  and  C_11 
REMARK       I    between atoms: N_8  and  C_6 
REMARK    5  A    between atoms: C_12  and  N_8 
REMARK    6  A    between atoms: O_18  and  C_13 
ROOT
ATOM      1  S   UNL d   1      52.548  33.089  53.012  0.00  0.00    -0.044 SA
ENDROOT
BRANCH   1   2
ATOM      2  C   UNL d   1      52.026  33.643  52.689  0.00  0.00     0.180 A 
ATOM      3  N   UNL d   1      51.969  34.430  52.906  0.00  0.00    -0.284 N 
ATOM      4  C   UNL d   1      51.379  34.772  52.440  0.00  0.00     0.103 A 
ATOM      5  C   UNL d   1      51.072  34.183  51.931  0.00  0.00     0.120 A 
ATOM      6  N   UNL d   1      51.477  33.498  52.094  0.00  0.00    -0.219 NA
BRANCH   3   7
ATOM      7  C   UNL d   1      52.400  34.842  53.476  0.00  0.00     0.066 A 
ATOM      8  C   UNL d   1      53.135  35.151  53.294  0.00  0.00     0.018 A 
ATOM      9  C   UNL d   1      53.566  35.563  53.864  0.00  0.00     0.002 A 
ATOM     10  C   UNL d   1      53.262  35.666  54.616  0.00  0.00     0.000 A 
ATOM     11  C   UNL d   1      52.520  35.355  54.804  0.00  0.00     0.002 A 
ATOM     12  C   UNL d   1      52.089  34.943  54.234  0.00  0.00     0.018 A 
ENDBRANCH   3   7
ENDBRANCH   1   2
BRANCH   1  13
ATOM     13  C   UNL d   1      52.630  32.342  52.668  0.00  0.00     0.101 C 
BRANCH  13  14
ATOM     14  C   UNL d   1      52.847  31.701  53.116  0.00  0.00     0.286 C 
ATOM     15  N   UNL d   1      52.726  30.945  52.832  0.00  0.00    -0.208 NA
ATOM     16  O   UNL d   1      53.189  31.820  53.856  0.00  0.00    -0.265 OA
BRANCH  15  17
ATOM     17  C   UNL d   1      52.943  30.295  53.280  0.00  0.00     0.085 A 
ATOM     18  C   UNL d   1      52.364  29.782  53.573  0.00  0.00     0.021 A 
ATOM     19  C   UNL d   1      52.577  29.124  54.025  0.00  0.00     0.026 A 
ATOM     20  C   UNL d   1      53.372  28.981  54.184  0.00  0.00     0.094 A 
ATOM     21  C   UNL d   1      53.945  29.504  53.884  0.00  0.00     0.026 A 
ATOM     22  C   UNL d   1      53.731  30.148  53.441  0.00  0.00     0.021 A 
BRANCH  20  23
ATOM     23  O   UNL d   1      53.582  28.318  54.640  0.00  0.00    -0.328 OA
ATOM     24  C   UNL d   1      53.488  28.350  55.460  0.00  0.00     0.181 C 
ENDBRANCH  20  23
ENDBRANCH  15  17
ENDBRANCH  13  14
ENDBRANCH   1  13
TORSDOF 6
ENDMDL
