MODEL 1
REMARK VINA RESULT:      66.5      0.000      0.000
REMARK  4 active torsions:
REMARK  status: ('A' for Active; 'I' for Inactive)
REMARK    1  A    between atoms: N_7  and  S_1 
REMARK    2  A    between atoms: C_8  and  S_1 
REMARK    3  A    between atoms: C_17  and  N_2 
REMARK    4  A    between atoms: C_14  and  N_7 
ROOT
ATOM      1  N   UNL d   1     -58.615 -98.828 -46.471  0.00  0.00    -0.273 N 
ATOM      2  C   UNL d   1     -59.158 -98.791 -45.524  0.00  0.00     0.265 A 
ATOM      3  C   UNL d   1     -57.852 -98.847 -46.243  0.00  0.00     0.067 A 
ATOM      4  C   UNL d   1     -57.836 -98.830 -45.403  0.00  0.00     0.021 A 
ATOM      5  C   UNL d   1     -58.544 -98.799 -44.979  0.00  0.00     0.058 A 
ATOM      6  C   UNL d   1     -56.392 -98.875 -45.428  0.00  0.00     0.105 A 
ATOM      7  C   UNL d   1     -57.109 -98.844 -45.005  0.00  0.00     0.014 A 
ATOM      8  C   UNL d   1     -57.139 -98.877 -46.633  0.00  0.00     0.018 A 
ATOM      9  C   UNL d   1     -56.388 -98.892 -46.236  0.00  0.00     0.014 A 
ATOM     10  O   UNL d   1     -59.941 -98.762 -45.302  0.00  0.00    -0.267 OA
ATOM     11  C   UNL d   1     -58.529 -98.783 -44.172  0.00  0.00     0.005 A 
ATOM     12  C   UNL d   1     -57.094 -98.828 -44.198  0.00  0.00     0.001 A 
ATOM     13  C   UNL d   1     -57.806 -98.797 -43.774  0.00  0.00     0.000 A 
ENDROOT
BRANCH   6  14
ATOM     14  S   UNL d   1     -55.670 -98.890 -45.064  0.00  0.00     0.287 S 
ATOM     15  O   UNL d   1     -55.294 -98.757 -45.756  0.00  0.00    -0.198 OA
ATOM     16  O   UNL d   1     -56.050 -99.028 -44.339  0.00  0.00    -0.198 OA
BRANCH  14  17
ATOM     17  N   UNL d   1     -54.942 -98.911 -44.657  0.00  0.00    -0.139 NA
BRANCH  17  18
ATOM     18  C   UNL d   1     -54.868 -99.352 -43.967  0.00  0.00     0.175 A 
ATOM     19  N   UNL d   1     -54.836-100.187 -43.996  0.00  0.00    -0.225 NA
ATOM     20  C   UNL d   1     -54.760-100.620 -43.287  0.00  0.00     0.101 A 
ATOM     21  C   UNL d   1     -54.718-100.221 -42.566  0.00  0.00     0.021 A 
ATOM     22  C   UNL d   1     -54.749 -99.405 -42.528  0.00  0.00     0.005 A 
ATOM     23  C   UNL d   1     -54.824 -98.968 -43.237  0.00  0.00     0.040 A 
ENDBRANCH  17  18
ENDBRANCH  14  17
ENDBRANCH   6  14
BRANCH   1  24
ATOM     24  C   UNL d   1     -58.798 -98.839 -47.270  0.00  0.00     0.083 C 
ATOM     25  C   UNL d   1     -59.601 -98.770 -47.506  0.00  0.00     0.021 C 
ENDBRANCH   1  24
TORSDOF 4
ENDMDL
