MODEL 1
REMARK VINA RESULT:     150.7      0.000      0.000
REMARK  4 active torsions:
REMARK  status: ('A' for Active; 'I' for Inactive)
REMARK    1  A    between atoms: N_10  and  C_3 
REMARK    2  A    between atoms: C_13  and  C_5 
REMARK    3  A    between atoms: C_19  and  C_9 
REMARK    4  A    between atoms: C_12  and  N_11 
ROOT
ATOM      1  N   UNL d   1      59.011  47.074  50.748  0.00  0.00    -0.196 N 
ATOM      2  C   UNL d   1      58.558  47.749  50.721  0.00  0.00     0.167 A 
ATOM      3  C   UNL d   1      59.804  47.141  50.840  0.00  0.00     0.152 A 
ATOM      4  N   UNL d   1      57.864  46.298  50.590  0.00  0.00    -0.163 NA
ATOM      5  C   UNL d   1      57.774  47.694  50.630  0.00  0.00     0.055 A 
ATOM      6  N   UNL d   1      58.915  48.466  50.787  0.00  0.00    -0.227 NA
ATOM      7  C   UNL d   1      60.162  47.884  50.908  0.00  0.00     0.057 A 
ATOM      8  C   UNL d   1      57.411  46.973  50.563  0.00  0.00     0.104 A 
ATOM      9  C   UNL d   1      59.703  48.524  50.878  0.00  0.00     0.086 A 
ATOM     10  C   UNL d   1      56.630  46.921  50.472  0.00  0.00     0.023 C 
ENDROOT
BRANCH   3  11
ATOM     11  N   UNL d   1      60.272  46.450  50.869  0.00  0.00    -0.286 N 
ATOM     12  C   UNL d   1      60.262  45.970  51.545  0.00  0.00     0.101 A 
ATOM     13  C   UNL d   1      60.732  45.276  51.574  0.00  0.00     0.101 A 
ATOM     14  N   UNL d   1      61.209  45.068  50.926  0.00  0.00    -0.286 N 
ATOM     15  C   UNL d   1      61.220  45.549  50.246  0.00  0.00     0.101 A 
ATOM     16  C   UNL d   1      60.754  46.241  50.213  0.00  0.00     0.101 A 
BRANCH  14  17
ATOM     17  C   UNL d   1      61.677  44.378  50.955  0.00  0.00     0.148 A 
ATOM     18  N   UNL d   1      61.605  43.855  51.606  0.00  0.00    -0.227 NA
ATOM     19  C   UNL d   1      62.072  43.169  51.633  0.00  0.00     0.101 A 
ATOM     20  C   UNL d   1      62.611  42.996  51.016  0.00  0.00     0.021 A 
ATOM     21  C   UNL d   1      62.679  43.516  50.373  0.00  0.00     0.005 A 
ATOM     22  C   UNL d   1      62.210  44.210  50.343  0.00  0.00     0.037 A 
ENDBRANCH  14  17
ENDBRANCH   3  11
BRANCH   9  23
ATOM     23  C   UNL d   1      60.071  49.280  50.947  0.00  0.00     0.018 C 
ATOM     24  C   UNL d   1      60.308  49.700  50.258  0.00  0.00     0.002 C 
ATOM     25  C   UNL d   1      60.199  49.610  51.717  0.00  0.00     0.002 C 
ENDBRANCH   9  23
BRANCH   5  26
ATOM     26  C   UNL d   1      57.316  48.377  50.602  0.00  0.00     0.004 A 
ATOM     27  C   UNL d   1      57.075  48.723  51.279  0.00  0.00     0.000 A 
ATOM     28  C   UNL d   1      56.631  49.384  51.260  0.00  0.00     0.000 A 
ATOM     29  C   UNL d   1      56.424  49.706  50.548  0.00  0.00     0.000 A 
ATOM     30  C   UNL d   1      56.663  49.364  49.867  0.00  0.00     0.000 A 
ATOM     31  C   UNL d   1      57.114  48.693  49.894  0.00  0.00     0.000 A 
ENDBRANCH   5  26
TORSDOF 4
ENDMDL
