MODEL 1
REMARK VINA RESULT:      -4.9      0.000      0.000
REMARK  4 active torsions:
REMARK  status: ('A' for Active; 'I' for Inactive)
REMARK    1  A    between atoms: N_3  and  C_1 
REMARK    2  A    between atoms: C_4  and  C_2 
REMARK       I    between atoms: C_6  and  N_3 
REMARK    3  A    between atoms: C_18  and  C_6 
REMARK    4  A    between atoms: C_17  and  C_18 
ROOT
ATOM      1  N   UNL d   1      56.506   0.187  32.194  0.00  0.00    -0.201 NA
ATOM      2  C   UNL d   1      56.909   0.043  31.491  0.00  0.00     0.280 C 
ATOM      3  O   UNL d   1      57.004  -0.729  31.205  0.00  0.00    -0.265 OA
ENDROOT
BRANCH   2   4
ATOM      4  C   UNL d   1      57.227   0.682  31.060  0.00  0.00     0.063 C 
BRANCH   4   5
ATOM      5  C   UNL d   1      57.959   0.607  30.667  0.00  0.00     0.007 A 
ATOM      6  C   UNL d   1      57.987   0.460  29.850  0.00  0.00     0.026 A 
ATOM      7  C   UNL d   1      58.722   0.387  29.466  0.00  0.00     0.119 A 
ATOM      8  O   UNL d   1      58.918   0.243  28.672  0.00  0.00    -0.300 OA
ATOM      9  C   UNL d   1      59.418   0.459  29.894  0.00  0.00     0.119 A 
ATOM     10  C   UNL d   1      59.756   0.229  28.619  0.00  0.00     0.304 A 
ATOM     11  O   UNL d   1      60.045   0.362  29.373  0.00  0.00    -0.300 OA
ATOM     12  C   UNL d   1      59.392   0.605  30.709  0.00  0.00     0.026 A 
ATOM     13  C   UNL d   1      58.664   0.678  31.086  0.00  0.00     0.002 A 
ENDBRANCH   4   5
ENDBRANCH   2   4
BRANCH   1  14
ATOM     14  C   UNL d   1      56.191  -0.441  32.622  0.00  0.00     0.119 A 
ATOM     15  C   UNL d   1      55.696  -0.385  33.272  0.00  0.00     0.084 A 
ATOM     16  C   UNL d   1      55.516  -1.141  33.526  0.00  0.00     0.014 A 
ATOM     17  C   UNL d   1      55.901  -1.685  33.032  0.00  0.00     0.037 A 
ATOM     18  S   UNL d   1      56.323  -1.240  32.468  0.00  0.00    -0.067 SA
BRANCH  15  19
ATOM     19  C   UNL d   1      55.417   0.308  33.624  0.00  0.00     0.299 C 
ATOM     20  O   UNL d   1      54.732   0.682  33.360  0.00  0.00    -0.264 OA
ATOM     21  N   UNL d   1      55.836   0.630  34.255  0.00  0.00    -0.102 N 
ENDBRANCH  15  19
ENDBRANCH   1  14
TORSDOF 4
ENDMDL
MODEL 2
REMARK VINA RESULT:      -4.9      1.679      4.731
REMARK  4 active torsions:
REMARK  status: ('A' for Active; 'I' for Inactive)
REMARK    1  A    between atoms: N_3  and  C_1 
REMARK    2  A    between atoms: C_4  and  C_2 
REMARK       I    between atoms: C_6  and  N_3 
REMARK    3  A    between atoms: C_18  and  C_6 
REMARK    4  A    between atoms: C_17  and  C_18 
ROOT
ATOM      1  N   UNL d   1      58.505   0.198  30.568  0.00  0.00    -0.201 NA
ATOM      2  C   UNL d   1      57.811   0.433  30.942  0.00  0.00     0.280 C 
ATOM      3  O   UNL d   1      57.153   0.682  30.502  0.00  0.00    -0.265 OA
ENDROOT
BRANCH   2   4
ATOM      4  C   UNL d   1      57.767   0.422  31.774  0.00  0.00     0.063 C 
BRANCH   4   5
ATOM      5  C   UNL d   1      57.095   0.112  32.160  0.00  0.00     0.007 A 
ATOM      6  C   UNL d   1      56.586   0.611  32.587  0.00  0.00     0.026 A 
ATOM      7  C   UNL d   1      55.918   0.294  32.969  0.00  0.00     0.119 A 
ATOM      8  O   UNL d   1      55.323   0.649  33.427  0.00  0.00    -0.300 OA
ATOM      9  C   UNL d   1      55.762  -0.510  32.924  0.00  0.00     0.119 A 
ATOM     10  C   UNL d   1      54.793   0.043  33.664  0.00  0.00     0.304 A 
ATOM     11  O   UNL d   1      55.075  -0.657  33.349  0.00  0.00    -0.300 OA
ATOM     12  C   UNL d   1      56.268  -1.009  32.498  0.00  0.00     0.026 A 
ATOM     13  C   UNL d   1      56.928  -0.693  32.121  0.00  0.00     0.002 A 
ENDBRANCH   4   5
ENDBRANCH   2   4
BRANCH   1  14
ATOM     14  C   UNL d   1      58.552   0.207  29.746  0.00  0.00     0.119 A 
ATOM     15  C   UNL d   1      59.180  -0.059  29.293  0.00  0.00     0.084 A 
ATOM     16  C   UNL d   1      58.996   0.054  28.505  0.00  0.00     0.014 A 
ATOM     17  C   UNL d   1      58.242   0.396  28.455  0.00  0.00     0.037 A 
ATOM     18  S   UNL d   1      57.969   0.489  29.237  0.00  0.00    -0.067 SA
BRANCH  15  19
ATOM     19  C   UNL d   1      59.886  -0.387  29.569  0.00  0.00     0.299 C 
ATOM     20  O   UNL d   1      60.457   0.069  29.949  0.00  0.00    -0.264 OA
ATOM     21  N   UNL d   1      60.019  -1.192  29.458  0.00  0.00    -0.102 N 
ENDBRANCH  15  19
ENDBRANCH   1  14
TORSDOF 4
ENDMDL
MODEL 3
REMARK VINA RESULT:      -2.7      8.772      9.842
REMARK  4 active torsions:
REMARK  status: ('A' for Active; 'I' for Inactive)
REMARK    1  A    between atoms: N_3  and  C_1 
REMARK    2  A    between atoms: C_4  and  C_2 
REMARK       I    between atoms: C_6  and  N_3 
REMARK    3  A    between atoms: C_18  and  C_6 
REMARK    4  A    between atoms: C_17  and  C_18 
ROOT
ATOM      1  N   UNL d   1      59.376  -8.581  35.210  0.00  0.00    -0.201 NA
ATOM      2  C   UNL d   1      59.533  -9.293  34.828  0.00  0.00     0.280 C 
ATOM      3  O   UNL d   1      60.284  -9.641  34.868  0.00  0.00    -0.265 OA
ENDROOT
BRANCH   2   4
ATOM      4  C   UNL d   1      58.928  -9.670  34.395  0.00  0.00     0.063 C 
BRANCH   4   5
ATOM      5  C   UNL d   1      58.964  -9.710  33.562  0.00  0.00     0.007 A 
ATOM      6  C   UNL d   1      58.270  -9.683  33.107  0.00  0.00     0.026 A 
ATOM      7  C   UNL d   1      58.316  -9.723  32.278  0.00  0.00     0.119 A 
ATOM      8  O   UNL d   1      57.727  -9.709  31.691  0.00  0.00    -0.300 OA
ATOM      9  C   UNL d   1      59.044  -9.790  31.909  0.00  0.00     0.119 A 
ATOM     10  C   UNL d   1      58.113  -9.769  30.948  0.00  0.00     0.304 A 
ATOM     11  O   UNL d   1      58.915  -9.818  31.098  0.00  0.00    -0.300 OA
ATOM     12  C   UNL d   1      59.738  -9.817  32.360  0.00  0.00     0.026 A 
ATOM     13  C   UNL d   1      59.691  -9.777  33.181  0.00  0.00     0.002 A 
ENDBRANCH   4   5
ENDBRANCH   2   4
BRANCH   1  14
ATOM     14  C   UNL d   1      59.969  -8.205  35.638  0.00  0.00     0.119 A 
ATOM     15  C   UNL d   1      59.939  -7.447  35.946  0.00  0.00     0.084 A 
ATOM     16  C   UNL d   1      60.645  -7.296  36.330  0.00  0.00     0.014 A 
ATOM     17  C   UNL d   1      61.130  -7.966  36.266  0.00  0.00     0.037 A 
ATOM     18  S   UNL d   1      60.700  -8.532  35.831  0.00  0.00    -0.067 SA
BRANCH  15  19
ATOM     19  C   UNL d   1      59.312  -6.912  35.889  0.00  0.00     0.299 C 
ATOM     20  O   UNL d   1      59.419  -6.148  35.601  0.00  0.00    -0.264 OA
ATOM     21  N   UNL d   1      58.562  -7.154  36.127  0.00  0.00    -0.102 N 
ENDBRANCH  15  19
ENDBRANCH   1  14
TORSDOF 4
ENDMDL
