MODEL 1
REMARK VINA RESULT:      32.8      0.000      0.000
REMARK  3 active torsions:
REMARK  status: ('A' for Active; 'I' for Inactive)
REMARK    1  A    between atoms: C_7  and  N_1 
REMARK    2  A    between atoms: C_5  and  C_2 
REMARK    3  A    between atoms: C_11  and  C_7 
ROOT
ATOM      1  N   UNL d   1      58.287  49.691  50.249  0.00  0.00    -0.262 N 
ATOM      2  C   UNL d   1      59.109  49.690  50.154  0.00  0.00     0.173 A 
ATOM      3  N   UNL d   1      59.244  49.700  49.341  0.00  0.00    -0.128 NA
ATOM      4  C   UNL d   1      57.929  49.702  49.525  0.00  0.00     0.227 A 
ATOM      5  N   UNL d   1      58.520  49.708  48.950  0.00  0.00    -0.117 NA
ATOM      6  S   UNL d   1      57.127  49.708  49.293  0.00  0.00    -0.036 SA
ENDROOT
BRANCH   2   7
ATOM      7  C   UNL d   1      59.685  49.680  50.740  0.00  0.00     0.064 A 
ATOM      8  C   UNL d   1      59.866  49.684  51.540  0.00  0.00     0.143 A 
ATOM      9  F   UNL d   1      59.147  49.708  51.953  0.00  0.00    -0.204 F 
ATOM     10  C   UNL d   1      60.664  49.664  51.779  0.00  0.00     0.030 A 
ATOM     11  C   UNL d   1      61.269  49.642  51.219  0.00  0.00     0.002 A 
ATOM     12  C   UNL d   1      61.079  49.639  50.423  0.00  0.00     0.000 A 
ATOM     13  C   UNL d   1      60.283  49.658  50.177  0.00  0.00     0.005 A 
ENDBRANCH   2   7
BRANCH   1  14
ATOM     14  C   UNL d   1      57.874  49.683  50.968  0.00  0.00     0.108 C 
BRANCH  14  15
ATOM     15  C   UNL d   1      57.230  49.178  51.055  0.00  0.00     0.118 A 
ATOM     16  O   UNL d   1      57.183  48.398  50.792  0.00  0.00    -0.304 OA
ATOM     17  C   UNL d   1      56.445  48.093  50.991  0.00  0.00     0.123 A 
ATOM     18  C   UNL d   1      56.033  48.696  51.383  0.00  0.00     0.029 A 
ATOM     19  C   UNL d   1      56.514  49.364  51.423  0.00  0.00     0.028 A 
ENDBRANCH  14  15
ENDBRANCH   1  14
TORSDOF 3
ENDMDL
