MODEL 1
REMARK VINA RESULT:      -7.9      0.000      0.000
REMARK  4 active torsions:
REMARK  status: ('A' for Active; 'I' for Inactive)
REMARK    1  A    between atoms: C_8  and  C_1 
REMARK    2  A    between atoms: S_4  and  N_7 
REMARK    3  A    between atoms: C_14  and  S_4 
REMARK    4  A    between atoms: N_7  and  C_13 
ROOT
ATOM      1  C   UNL d   1     -47.989  12.596  23.153  0.00  0.00     0.025 A 
ATOM      2  C   UNL d   1     -47.266  12.978  23.102  0.00  0.00     0.022 A 
ATOM      3  C   UNL d   1     -46.578  12.602  23.346  0.00  0.00     0.094 A 
ATOM      4  C   UNL d   1     -48.042  11.824  23.450  0.00  0.00     0.002 A 
ATOM      5  C   UNL d   1     -47.362  11.440  23.696  0.00  0.00     0.002 A 
ATOM      6  C   UNL d   1     -46.623  11.834  23.643  0.00  0.00     0.020 A 
ENDROOT
BRANCH   1   7
ATOM      7  C   UNL d   1     -48.681  12.979  22.906  0.00  0.00     0.112 A 
ATOM      8  S   UNL d   1     -49.142  12.775  22.241  0.00  0.00    -0.047 SA
ATOM      9  C   UNL d   1     -49.790  13.298  22.190  0.00  0.00     0.130 A 
ATOM     10  N   UNL d   1     -50.415  13.369  21.668  0.00  0.00    -0.236 NA
ATOM     11  C   UNL d   1     -49.724  13.831  22.834  0.00  0.00     0.106 A 
ATOM     12  C   UNL d   1     -50.978  13.958  21.770  0.00  0.00     0.100 A 
ATOM     13  C   UNL d   1     -50.919  14.486  22.401  0.00  0.00     0.022 A 
ATOM     14  C   UNL d   1     -50.296  14.424  22.933  0.00  0.00     0.023 A 
ATOM     15  N   UNL d   1     -49.045  13.636  23.273  0.00  0.00    -0.237 NA
ENDBRANCH   1   7
BRANCH   3  16
ATOM     16  N   UNL d   1     -45.853  12.981  23.297  0.00  0.00    -0.158 NA
BRANCH  16  17
ATOM     17  S   UNL d   1     -45.431  12.974  22.588  0.00  0.00     0.286 S 
ATOM     18  O   UNL d   1     -45.123  12.228  22.777  0.00  0.00    -0.198 OA
ATOM     19  O   UNL d   1     -45.736  13.716  22.399  0.00  0.00    -0.198 OA
BRANCH  17  20
ATOM     20  C   UNL d   1     -45.013  12.973  21.881  0.00  0.00     0.117 C 
ATOM     21  C   UNL d   1     -44.186  12.984  21.887  0.00  0.00     0.014 C 
ENDBRANCH  17  20
ENDBRANCH  16  17
ENDBRANCH   3  16
TORSDOF 4
ENDMDL
MODEL 2
REMARK VINA RESULT:      -6.9      1.958      4.442
REMARK  4 active torsions:
REMARK  status: ('A' for Active; 'I' for Inactive)
REMARK    1  A    between atoms: C_8  and  C_1 
REMARK    2  A    between atoms: S_4  and  N_7 
REMARK    3  A    between atoms: C_14  and  S_4 
REMARK    4  A    between atoms: N_7  and  C_13 
ROOT
ATOM      1  C   UNL d   1     -47.738  13.877  22.929  0.00  0.00     0.025 A 
ATOM      2  C   UNL d   1     -48.550  13.807  23.018  0.00  0.00     0.022 A 
ATOM      3  C   UNL d   1     -49.041  14.451  22.884  0.00  0.00     0.094 A 
ATOM      4  C   UNL d   1     -47.397  14.598  22.704  0.00  0.00     0.002 A 
ATOM      5  C   UNL d   1     -47.877  15.246  22.568  0.00  0.00     0.002 A 
ATOM      6  C   UNL d   1     -48.707  15.171  22.659  0.00  0.00     0.020 A 
ENDROOT
BRANCH   1   7
ATOM      7  C   UNL d   1     -47.246  13.224  23.065  0.00  0.00     0.112 A 
ATOM      8  S   UNL d   1     -46.431  13.183  22.894  0.00  0.00    -0.047 SA
ATOM      9  C   UNL d   1     -46.145  12.432  23.115  0.00  0.00     0.130 A 
ATOM     10  N   UNL d   1     -45.408  12.078  23.081  0.00  0.00    -0.236 NA
ATOM     11  C   UNL d   1     -46.796  12.006  23.427  0.00  0.00     0.106 A 
ATOM     12  C   UNL d   1     -45.303  11.309  23.350  0.00  0.00     0.100 A 
ATOM     13  C   UNL d   1     -45.939  10.884  23.658  0.00  0.00     0.022 A 
ATOM     14  C   UNL d   1     -46.684  11.230  23.698  0.00  0.00     0.023 A 
ATOM     15  N   UNL d   1     -47.471  12.491  23.397  0.00  0.00    -0.237 NA
ENDBRANCH   1   7
BRANCH   3  16
ATOM     16  N   UNL d   1     -49.853  14.385  22.971  0.00  0.00    -0.158 NA
BRANCH  16  17
ATOM     17  S   UNL d   1     -50.338  14.348  22.305  0.00  0.00     0.286 S 
ATOM     18  O   UNL d   1     -50.273  15.168  22.210  0.00  0.00    -0.198 OA
ATOM     19  O   UNL d   1     -50.404  13.531  22.398  0.00  0.00    -0.198 OA
BRANCH  17  20
ATOM     20  C   UNL d   1     -50.822  14.305  21.643  0.00  0.00     0.117 C 
ATOM     21  C   UNL d   1     -51.057  13.569  21.348  0.00  0.00     0.014 C 
ENDBRANCH  17  20
ENDBRANCH  16  17
ENDBRANCH   3  16
TORSDOF 4
ENDMDL
MODEL 3
REMARK VINA RESULT:      -6.8      1.495      1.900
REMARK  4 active torsions:
REMARK  status: ('A' for Active; 'I' for Inactive)
REMARK    1  A    between atoms: C_8  and  C_1 
REMARK    2  A    between atoms: S_4  and  N_7 
REMARK    3  A    between atoms: C_14  and  S_4 
REMARK    4  A    between atoms: N_7  and  C_13 
ROOT
ATOM      1  C   UNL d   1     -47.361  12.579  22.856  0.00  0.00     0.025 A 
ATOM      2  C   UNL d   1     -46.828  12.196  23.346  0.00  0.00     0.022 A 
ATOM      3  C   UNL d   1     -46.022  12.227  23.192  0.00  0.00     0.094 A 
ATOM      4  C   UNL d   1     -47.098  13.005  22.195  0.00  0.00     0.002 A 
ATOM      5  C   UNL d   1     -46.297  13.043  22.032  0.00  0.00     0.002 A 
ATOM      6  C   UNL d   1     -45.755  12.650  22.536  0.00  0.00     0.020 A 
ENDROOT
BRANCH   1   7
ATOM      7  C   UNL d   1     -48.173  12.546  23.015  0.00  0.00     0.112 A 
ATOM      8  S   UNL d   1     -48.660  11.873  22.932  0.00  0.00    -0.047 SA
ATOM      9  C   UNL d   1     -49.439  12.075  23.148  0.00  0.00     0.130 A 
ATOM     10  N   UNL d   1     -50.141  11.656  23.179  0.00  0.00    -0.236 NA
ATOM     11  C   UNL d   1     -49.430  12.884  23.367  0.00  0.00     0.106 A 
ATOM     12  C   UNL d   1     -50.834  12.022  23.423  0.00  0.00     0.100 A 
ATOM     13  C   UNL d   1     -50.832  12.818  23.639  0.00  0.00     0.022 A 
ATOM     14  C   UNL d   1     -50.133  13.250  23.613  0.00  0.00     0.023 A 
ATOM     15  N   UNL d   1     -48.654  13.173  23.286  0.00  0.00    -0.237 NA
ENDBRANCH   1   7
BRANCH   3  16
ATOM     16  N   UNL d   1     -45.486  11.846  23.681  0.00  0.00    -0.158 NA
BRANCH  16  17
ATOM     17  S   UNL d   1     -45.171  11.117  23.457  0.00  0.00     0.286 S 
ATOM     18  O   UNL d   1     -45.876  10.742  23.676  0.00  0.00    -0.198 OA
ATOM     19  O   UNL d   1     -44.467  11.489  23.239  0.00  0.00    -0.198 OA
BRANCH  17  20
ATOM     20  C   UNL d   1     -44.851  10.395  23.233  0.00  0.00     0.117 C 
ATOM     21  C   UNL d   1     -44.230  10.063  23.668  0.00  0.00     0.014 C 
ENDBRANCH  17  20
ENDBRANCH  16  17
ENDBRANCH   3  16
TORSDOF 4
ENDMDL
MODEL 4
REMARK VINA RESULT:      -6.5      2.008      4.323
REMARK  4 active torsions:
REMARK  status: ('A' for Active; 'I' for Inactive)
REMARK    1  A    between atoms: C_8  and  C_1 
REMARK    2  A    between atoms: S_4  and  N_7 
REMARK    3  A    between atoms: C_14  and  S_4 
REMARK    4  A    between atoms: N_7  and  C_13 
ROOT
ATOM      1  C   UNL d   1     -48.737  12.453  22.990  0.00  0.00     0.025 A 
ATOM      2  C   UNL d   1     -49.254  13.046  22.761  0.00  0.00     0.022 A 
ATOM      3  C   UNL d   1     -50.064  12.951  22.851  0.00  0.00     0.094 A 
ATOM      4  C   UNL d   1     -49.020  11.746  23.317  0.00  0.00     0.002 A 
ATOM      5  C   UNL d   1     -49.826  11.640  23.412  0.00  0.00     0.002 A 
ATOM      6  C   UNL d   1     -50.353  12.250  23.176  0.00  0.00     0.020 A 
ENDROOT
BRANCH   1   7
ATOM      7  C   UNL d   1     -47.919  12.552  22.897  0.00  0.00     0.112 A 
ATOM      8  S   UNL d   1     -47.328  12.200  23.367  0.00  0.00    -0.047 SA
ATOM      9  C   UNL d   1     -46.580  12.444  23.089  0.00  0.00     0.130 A 
ATOM     10  N   UNL d   1     -45.813  12.283  23.324  0.00  0.00    -0.236 NA
ATOM     11  C   UNL d   1     -46.717  12.954  22.438  0.00  0.00     0.106 A 
ATOM     12  C   UNL d   1     -45.178  12.618  22.926  0.00  0.00     0.100 A 
ATOM     13  C   UNL d   1     -45.305  13.120  22.285  0.00  0.00     0.022 A 
ATOM     14  C   UNL d   1     -46.071  13.289  22.040  0.00  0.00     0.023 A 
ATOM     15  N   UNL d   1     -47.537  13.021  22.320  0.00  0.00    -0.237 NA
ENDBRANCH   1   7
BRANCH   3  16
ATOM     16  N   UNL d   1     -50.584  13.541  22.623  0.00  0.00    -0.158 NA
BRANCH  16  17
ATOM     17  S   UNL d   1     -50.746  14.169  23.133  0.00  0.00     0.286 S 
ATOM     18  O   UNL d   1     -51.064  13.640  23.686  0.00  0.00    -0.198 OA
ATOM     19  O   UNL d   1     -50.430  14.697  22.585  0.00  0.00    -0.198 OA
BRANCH  17  20
ATOM     20  C   UNL d   1     -50.905  14.797  23.637  0.00  0.00     0.117 C 
ATOM     21  C   UNL d   1     -50.765  15.574  23.389  0.00  0.00     0.014 C 
ENDBRANCH  17  20
ENDBRANCH  16  17
ENDBRANCH   3  16
TORSDOF 4
ENDMDL
