MODEL 1
REMARK VINA RESULT:      -3.0      0.000      0.000
REMARK  5 active torsions:
REMARK  status: ('A' for Active; 'I' for Inactive)
REMARK       I    between atoms: C_3  and  N_1 
REMARK    1  A    between atoms: C_8  and  C_3 
REMARK    2  A    between atoms: S_4  and  N_9 
REMARK    3  A    between atoms: C_16  and  C_5 
REMARK    4  A    between atoms: C_10  and  C_6 
REMARK    5  A    between atoms: N_9  and  C_21 
ROOT
ATOM      1  N   UNL d   1      58.760  -1.082  29.672  0.00  0.00    -0.193 N 
ATOM      2  N   UNL d   1      58.085  -1.190  30.140  0.00  0.00    -0.163 NA
ATOM      3  C   UNL d   1      59.067  -1.632  29.139  0.00  0.00     0.303 C 
ATOM      4  C   UNL d   1      59.063  -0.329  29.839  0.00  0.00     0.088 A 
ATOM      5  C   UNL d   1      57.972  -0.509  30.591  0.00  0.00     0.103 A 
ATOM      6  C   UNL d   1      58.578   0.019  30.402  0.00  0.00     0.040 A 
ATOM      7  O   UNL d   1      59.749  -1.440  28.710  0.00  0.00    -0.263 OA
ENDROOT
BRANCH   5   8
ATOM      8  C   UNL d   1      57.367  -0.381  31.131  0.00  0.00     0.019 A 
ATOM      9  C   UNL d   1      57.145  -0.986  31.656  0.00  0.00     0.003 A 
ATOM     10  C   UNL d   1      56.542  -0.857  32.193  0.00  0.00     0.020 A 
ATOM     11  C   UNL d   1      56.151  -0.129  32.218  0.00  0.00     0.093 A 
ATOM     12  C   UNL d   1      56.375   0.472  31.693  0.00  0.00     0.020 A 
ATOM     13  C   UNL d   1      56.985   0.342  31.149  0.00  0.00     0.003 A 
BRANCH  11  14
ATOM     14  N   UNL d   1      55.543   0.008  32.756  0.00  0.00    -0.162 NA
BRANCH  14  15
ATOM     15  S   UNL d   1      55.484  -0.429  33.445  0.00  0.00     0.266 S 
ATOM     16  O   UNL d   1      55.432  -0.555  34.260  0.00  0.00    -0.203 OA
ATOM     17  O   UNL d   1      55.502   0.327  33.781  0.00  0.00    -0.203 OA
ATOM     18  C   UNL d   1      55.465  -1.191  33.136  0.00  0.00     0.165 C 
ENDBRANCH  14  15
ENDBRANCH  11  14
ENDBRANCH   5   8
BRANCH   4  19
ATOM     19  C   UNL d   1      59.728   0.002  29.498  0.00  0.00     0.018 A 
ATOM     20  C   UNL d   1      59.665   0.373  28.738  0.00  0.00     0.002 A 
ATOM     21  C   UNL d   1      60.365   0.682  28.456  0.00  0.00     0.000 A 
ATOM     22  C   UNL d   1      61.079   0.638  28.871  0.00  0.00     0.000 A 
ATOM     23  C   UNL d   1      61.133   0.292  29.578  0.00  0.00     0.000 A 
ATOM     24  C   UNL d   1      60.452  -0.040  29.915  0.00  0.00     0.002 A 
ENDBRANCH   4  19
BRANCH   3  25
ATOM     25  C   UNL d   1      58.703  -2.351  29.037  0.00  0.00     0.158 A 
ATOM     26  O   UNL d   1      58.898  -3.063  29.441  0.00  0.00    -0.300 OA
ATOM     27  C   UNL d   1      58.387  -3.650  29.164  0.00  0.00     0.123 A 
ATOM     28  C   UNL d   1      57.889  -3.315  28.605  0.00  0.00     0.029 A 
ATOM     29  C   UNL d   1      58.096  -2.515  28.537  0.00  0.00     0.032 A 
ENDBRANCH   3  25
TORSDOF 5
ENDMDL
MODEL 2
REMARK VINA RESULT:      -2.3      0.873      2.662
REMARK  5 active torsions:
REMARK  status: ('A' for Active; 'I' for Inactive)
REMARK       I    between atoms: C_3  and  N_1 
REMARK    1  A    between atoms: C_8  and  C_3 
REMARK    2  A    between atoms: S_4  and  N_9 
REMARK    3  A    between atoms: C_16  and  C_5 
REMARK    4  A    between atoms: C_10  and  C_6 
REMARK    5  A    between atoms: N_9  and  C_21 
ROOT
ATOM      1  N   UNL d   1      59.241  -1.281  29.535  0.00  0.00    -0.193 N 
ATOM      2  N   UNL d   1      58.899  -0.683  29.994  0.00  0.00    -0.163 NA
ATOM      3  C   UNL d   1      59.937  -1.211  29.097  0.00  0.00     0.303 C 
ATOM      4  C   UNL d   1      58.760  -1.953  29.598  0.00  0.00     0.088 A 
ATOM      5  C   UNL d   1      58.212  -0.983  30.338  0.00  0.00     0.103 A 
ATOM      6  C   UNL d   1      58.130  -1.766  30.091  0.00  0.00     0.040 A 
ATOM      7  O   UNL d   1      60.208  -1.863  28.664  0.00  0.00    -0.263 OA
ENDROOT
BRANCH   5   8
ATOM      8  C   UNL d   1      57.702  -0.575  30.836  0.00  0.00     0.019 A 
ATOM      9  C   UNL d   1      57.609   0.246  30.751  0.00  0.00     0.003 A 
ATOM     10  C   UNL d   1      57.100   0.651  31.247  0.00  0.00     0.020 A 
ATOM     11  C   UNL d   1      56.678   0.249  31.833  0.00  0.00     0.093 A 
ATOM     12  C   UNL d   1      56.773  -0.569  31.916  0.00  0.00     0.020 A 
ATOM     13  C   UNL d   1      57.288  -0.980  31.413  0.00  0.00     0.003 A 
BRANCH  11  14
ATOM     14  N   UNL d   1      56.165   0.651  32.337  0.00  0.00    -0.162 NA
BRANCH  14  15
ATOM     15  S   UNL d   1      55.899   0.306  33.029  0.00  0.00     0.266 S 
ATOM     16  O   UNL d   1      55.349  -0.039  33.541  0.00  0.00    -0.203 OA
ATOM     17  O   UNL d   1      55.189   0.292  32.604  0.00  0.00    -0.203 OA
ATOM     18  C   UNL d   1      56.592   0.309  33.471  0.00  0.00     0.165 C 
ENDBRANCH  14  15
ENDBRANCH  11  14
ENDBRANCH   5   8
BRANCH   4  19
ATOM     19  C   UNL d   1      58.895  -2.671  29.232  0.00  0.00     0.018 A 
ATOM     20  C   UNL d   1      58.266  -3.044  28.802  0.00  0.00     0.002 A 
ATOM     21  C   UNL d   1      58.469  -3.756  28.461  0.00  0.00     0.000 A 
ATOM     22  C   UNL d   1      59.222  -4.091  28.526  0.00  0.00     0.000 A 
ATOM     23  C   UNL d   1      59.805  -3.741  28.926  0.00  0.00     0.000 A 
ATOM     24  C   UNL d   1      59.657  -3.012  29.295  0.00  0.00     0.002 A 
ENDBRANCH   4  19
BRANCH   3  25
ATOM     25  C   UNL d   1      60.348  -0.511  29.091  0.00  0.00     0.158 A 
ATOM     26  O   UNL d   1      60.722  -0.153  29.755  0.00  0.00    -0.300 OA
ATOM     27  C   UNL d   1      61.071   0.548  29.493  0.00  0.00     0.123 A 
ATOM     28  C   UNL d   1      60.919   0.627  28.691  0.00  0.00     0.029 A 
ATOM     29  C   UNL d   1      60.473  -0.032  28.457  0.00  0.00     0.032 A 
ENDBRANCH   3  25
TORSDOF 5
ENDMDL
