MODEL 1
REMARK VINA RESULT:      -1.7      0.000      0.000
REMARK  6 active torsions:
REMARK  status: ('A' for Active; 'I' for Inactive)
REMARK       I    between atoms: C_2  and  N_1 
REMARK    1  A    between atoms: C_3  and  C_2 
REMARK    2  A    between atoms: C_12  and  C_4 
REMARK       I    between atoms: C_5  and  N_8 
REMARK    3  A    between atoms: C_6  and  C_5 
REMARK       I    between atoms: N_9  and  C_6 
REMARK    4  A    between atoms: N_8  and  C_12 
REMARK    5  A    between atoms: C_19  and  N_9 
REMARK    6  A    between atoms: C_21  and  C_19 
ROOT
ATOM      1  C   UNL d   1      32.766  20.547 -22.439  0.00  0.00     0.337 C 
ATOM      2  N   UNL d   1      32.791  21.334 -22.202  0.00  0.00    -0.199 NA
ATOM      3  O   UNL d   1      32.533  19.956 -21.901  0.00  0.00    -0.260 OA
ENDROOT
BRANCH   2   4
ATOM      4  C   UNL d   1      32.585  21.537 -21.429  0.00  0.00     0.146 C 
BRANCH   4   5
ATOM      5  C   UNL d   1      32.397  22.329 -21.246  0.00  0.00     0.190 A 
ATOM      6  N   UNL d   1      32.450  22.664 -20.495  0.00  0.00    -0.250 N 
ATOM      7  C   UNL d   1      32.683  22.353 -19.759  0.00  0.00     0.272 C 
ATOM      8  C   UNL d   1      32.212  23.455 -20.568  0.00  0.00     0.112 A 
ATOM      9  O   UNL d   1      32.918  21.561 -19.703  0.00  0.00    -0.266 OA
ATOM     10  C   UNL d   1      32.017  23.597 -21.355  0.00  0.00     0.144 A 
ATOM     11  O   UNL d   1      32.136  22.887 -21.772  0.00  0.00    -0.285 OA
BRANCH   7  12
ATOM     12  C   UNL d   1      32.681  22.829 -19.087  0.00  0.00     0.086 A 
ATOM     13  S   UNL d   1      33.234  23.381 -18.802  0.00  0.00    -0.082 SA
ATOM     14  C   UNL d   1      32.930  23.697 -18.087  0.00  0.00     0.036 A 
ATOM     15  C   UNL d   1      32.200  23.336 -17.945  0.00  0.00     0.008 A 
ATOM     16  C   UNL d   1      32.042  22.803 -18.554  0.00  0.00     0.012 A 
ENDBRANCH   7  12
ENDBRANCH   4   5
ENDBRANCH   2   4
BRANCH   1  17
ATOM     17  C   UNL d   1      32.970  20.348 -23.199  0.00  0.00     0.337 C 
ATOM     18  N   UNL d   1      32.913  19.577 -23.462  0.00  0.00    -0.202 NA
ATOM     19  O   UNL d   1      33.241  20.939 -23.723  0.00  0.00    -0.260 OA
BRANCH  18  20
ATOM     20  C   UNL d   1      32.643  18.985 -22.943  0.00  0.00     0.102 C 
BRANCH  20  21
ATOM     21  C   UNL d   1      32.574  18.200 -23.222  0.00  0.00     0.019 A 
ATOM     22  C   UNL d   1      31.909  17.951 -23.634  0.00  0.00     0.004 A 
ATOM     23  C   UNL d   1      31.855  17.173 -23.903  0.00  0.00     0.030 A 
ATOM     24  C   UNL d   1      32.458  16.639 -23.767  0.00  0.00     0.140 A 
ATOM     25  C   UNL d   1      33.127  16.879 -23.355  0.00  0.00     0.030 A 
ATOM     26  F   UNL d   1      32.396  15.856 -24.042  0.00  0.00    -0.204 F 
ATOM     27  C   UNL d   1      33.190  17.653 -23.083  0.00  0.00     0.004 A 
ENDBRANCH  20  21
ENDBRANCH  18  20
ENDBRANCH   1  17
TORSDOF 6
ENDMDL
MODEL 2
REMARK VINA RESULT:      -0.5      2.410      3.662
REMARK  6 active torsions:
REMARK  status: ('A' for Active; 'I' for Inactive)
REMARK       I    between atoms: C_2  and  N_1 
REMARK    1  A    between atoms: C_3  and  C_2 
REMARK    2  A    between atoms: C_12  and  C_4 
REMARK       I    between atoms: C_5  and  N_8 
REMARK    3  A    between atoms: C_6  and  C_5 
REMARK       I    between atoms: N_9  and  C_6 
REMARK    4  A    between atoms: N_8  and  C_12 
REMARK    5  A    between atoms: C_19  and  N_9 
REMARK    6  A    between atoms: C_21  and  C_19 
ROOT
ATOM      1  C   UNL d   1      32.779  17.900 -23.606  0.00  0.00     0.337 C 
ATOM      2  N   UNL d   1      32.943  18.414 -22.986  0.00  0.00    -0.199 NA
ATOM      3  O   UNL d   1      32.772  18.179 -24.390  0.00  0.00    -0.260 OA
ENDROOT
BRANCH   2   4
ATOM      4  C   UNL d   1      33.100  19.209 -23.143  0.00  0.00     0.146 C 
BRANCH   4   5
ATOM      5  C   UNL d   1      33.050  19.769 -22.527  0.00  0.00     0.190 A 
ATOM      6  N   UNL d   1      33.085  20.587 -22.630  0.00  0.00    -0.250 N 
ATOM      7  C   UNL d   1      33.172  21.061 -23.307  0.00  0.00     0.272 C 
ATOM      8  C   UNL d   1      33.014  20.925 -21.877  0.00  0.00     0.112 A 
ATOM      9  O   UNL d   1      33.241  20.707 -24.053  0.00  0.00    -0.266 OA
ATOM     10  C   UNL d   1      32.938  20.320 -21.324  0.00  0.00     0.144 A 
ATOM     11  O   UNL d   1      32.961  19.600 -21.740  0.00  0.00    -0.285 OA
BRANCH   7  12
ATOM     12  C   UNL d   1      33.188  21.883 -23.240  0.00  0.00     0.086 A 
ATOM     13  S   UNL d   1      33.210  22.380 -22.573  0.00  0.00    -0.082 SA
ATOM     14  C   UNL d   1      33.220  23.171 -22.850  0.00  0.00     0.036 A 
ATOM     15  C   UNL d   1      33.204  23.148 -23.676  0.00  0.00     0.008 A 
ATOM     16  C   UNL d   1      33.184  22.361 -23.922  0.00  0.00     0.012 A 
ENDBRANCH   7  12
ENDBRANCH   4   5
ENDBRANCH   2   4
BRANCH   1  17
ATOM     17  C   UNL d   1      32.624  17.118 -23.451  0.00  0.00     0.337 C 
ATOM     18  N   UNL d   1      31.894  16.791 -23.620  0.00  0.00    -0.202 NA
ATOM     19  O   UNL d   1      33.218  16.638 -23.114  0.00  0.00    -0.260 OA
BRANCH  18  20
ATOM     20  C   UNL d   1      31.300  17.266 -23.956  0.00  0.00     0.102 C 
BRANCH  20  21
ATOM     21  C   UNL d   1      30.544  16.936 -24.092  0.00  0.00     0.019 A 
ATOM     22  C   UNL d   1      30.362  16.174 -23.848  0.00  0.00     0.004 A 
ATOM     23  C   UNL d   1      29.611  15.862 -23.989  0.00  0.00     0.030 A 
ATOM     24  C   UNL d   1      29.038  16.302 -24.372  0.00  0.00     0.140 A 
ATOM     25  C   UNL d   1      29.212  17.065 -24.619  0.00  0.00     0.030 A 
ATOM     26  F   UNL d   1      28.284  15.979 -24.510  0.00  0.00    -0.204 F 
ATOM     27  C   UNL d   1      29.958  17.385 -24.483  0.00  0.00     0.004 A 
ENDBRANCH  20  21
ENDBRANCH  18  20
ENDBRANCH   1  17
TORSDOF 6
ENDMDL
