MODEL 1
REMARK VINA RESULT:      47.3      0.000      0.000
REMARK  4 active torsions:
REMARK  status: ('A' for Active; 'I' for Inactive)
REMARK    1  A    between atoms: C_2  and  C_1 
REMARK       I    between atoms: N_7  and  C_2 
REMARK    2  A    between atoms: N_6  and  C_5 
REMARK    3  A    between atoms: C_10  and  N_7 
REMARK    4  A    between atoms: C_8  and  C_9 
ROOT
ATOM      1  C   UNL d   1      13.328  13.253  -4.161  0.00  0.00     0.021 A 
ATOM      2  C   UNL d   1      13.753  12.361  -3.129  0.00  0.00     0.085 A 
ATOM      3  C   UNL d   1      13.794  13.098  -3.499  0.00  0.00     0.021 A 
ATOM      4  C   UNL d   1      12.819  12.672  -4.453  0.00  0.00     0.002 A 
ATOM      5  C   UNL d   1      12.782  11.943  -4.083  0.00  0.00     0.002 A 
ATOM      6  C   UNL d   1      13.248  11.788  -3.421  0.00  0.00     0.019 A 
ENDROOT
BRANCH   1   7
ATOM      7  C   UNL d   1      13.372  13.998  -4.532  0.00  0.00     0.103 A 
ATOM      8  N   UNL d   1      12.769  14.542  -4.431  0.00  0.00    -0.147 NA
ATOM      9  N   UNL d   1      12.817  15.278  -4.801  0.00  0.00    -0.130 NA
ATOM     10  C   UNL d   1      13.471  15.464  -5.269  0.00  0.00     0.169 A 
ATOM     11  C   UNL d   1      14.078  14.908  -5.367  0.00  0.00     0.041 A 
ATOM     12  C   UNL d   1      14.026  14.183  -5.000  0.00  0.00     0.024 A 
BRANCH  10  13
ATOM     13  N   UNL d   1      13.521  16.192  -5.636  0.00  0.00    -0.288 N 
ATOM     14  C   UNL d   1      14.233  16.609  -5.624  0.00  0.00     0.082 A 
ATOM     15  C   UNL d   1      14.289  17.345  -5.993  0.00  0.00     0.019 A 
ATOM     16  C   UNL d   1      13.631  17.664  -6.375  0.00  0.00     0.003 A 
ATOM     17  C   UNL d   1      12.918  17.248  -6.388  0.00  0.00     0.019 A 
ATOM     18  C   UNL d   1      12.864  16.512  -6.018  0.00  0.00     0.082 A 
ENDBRANCH  10  13
ENDBRANCH   1   7
BRANCH   2  19
ATOM     19  N   UNL d   1      14.220  12.206  -2.467  0.00  0.00    -0.205 NA
ATOM     20  C   UNL d   1      13.873  12.092  -1.735  0.00  0.00     0.351 C 
ATOM     21  O   UNL d   1      13.052  12.132  -1.661  0.00  0.00    -0.261 OA
BRANCH  20  22
ATOM     22  C   UNL d   1      14.337  11.937  -1.077  0.00  0.00     0.474 C 
ATOM     23  F   UNL d   1      14.804  11.782  -0.414  0.00  0.00    -0.162 F 
ATOM     24  F   UNL d   1      15.016  12.095  -1.518  0.00  0.00    -0.162 F 
ATOM     25  F   UNL d   1      13.658  11.780  -0.635  0.00  0.00    -0.162 F 
ENDBRANCH  20  22
ENDBRANCH   2  19
TORSDOF 4
ENDMDL
