MODEL 1
REMARK VINA RESULT:      -6.3      0.000      0.000
REMARK  1 active torsions:
REMARK  status: ('A' for Active; 'I' for Inactive)
REMARK    1  A    between atoms: C_8  and  C_3 
ROOT
ATOM      1  N   UNL d   1     -42.475-121.998 -53.890  0.00  0.00    -0.145 NA
ATOM      2  N   UNL d   1     -42.694-121.733 -54.650  0.00  0.00    -0.106 NA
ATOM      3  C   UNL d   1     -41.809-122.467 -53.798  0.00  0.00     0.103 A 
ATOM      4  C   UNL d   1     -42.242-121.943 -55.306  0.00  0.00     0.297 A 
ATOM      5  C   UNL d   1     -41.357-122.676 -54.465  0.00  0.00     0.026 A 
ATOM      6  C   UNL d   1     -41.573-122.417 -55.204  0.00  0.00     0.066 A 
ATOM      7  O   UNL d   1     -42.460-121.682 -56.049  0.00  0.00    -0.264 OA
ENDROOT
BRANCH   3   8
ATOM      8  C   UNL d   1     -41.582-122.734 -53.061  0.00  0.00     0.019 A 
ATOM      9  C   UNL d   1     -41.438-122.177 -52.461  0.00  0.00     0.002 A 
ATOM     10  C   UNL d   1     -41.207-122.439 -51.709  0.00  0.00     0.000 A 
ATOM     11  C   UNL d   1     -41.123-123.249 -51.562  0.00  0.00     0.000 A 
ATOM     12  C   UNL d   1     -41.266-123.798 -52.159  0.00  0.00     0.000 A 
ATOM     13  C   UNL d   1     -41.496-123.533 -52.906  0.00  0.00     0.002 A 
ENDBRANCH   3   8
TORSDOF 1
ENDMDL
MODEL 2
REMARK VINA RESULT:      -5.8      1.775      3.128
REMARK  1 active torsions:
REMARK  status: ('A' for Active; 'I' for Inactive)
REMARK    1  A    between atoms: C_8  and  C_3 
ROOT
ATOM      1  N   UNL d   1     -41.795-123.525 -53.242  0.00  0.00    -0.145 NA
ATOM      2  N   UNL d   1     -41.624-123.810 -52.476  0.00  0.00    -0.106 NA
ATOM      3  C   UNL d   1     -41.627-122.745 -53.433  0.00  0.00     0.103 A 
ATOM      4  C   UNL d   1     -41.288-123.309 -51.915  0.00  0.00     0.297 A 
ATOM      5  C   UNL d   1     -41.287-122.244 -52.862  0.00  0.00     0.026 A 
ATOM      6  C   UNL d   1     -41.122-122.525 -52.118  0.00  0.00     0.066 A 
ATOM      7  O   UNL d   1     -41.123-123.591 -51.166  0.00  0.00    -0.264 OA
ENDROOT
BRANCH   3   8
ATOM      8  C   UNL d   1     -41.788-122.453 -54.178  0.00  0.00     0.019 A 
ATOM      9  C   UNL d   1     -42.441-121.948 -54.277  0.00  0.00     0.002 A 
ATOM     10  C   UNL d   1     -42.612-121.647 -55.030  0.00  0.00     0.000 A 
ATOM     11  C   UNL d   1     -42.134-121.849 -55.674  0.00  0.00     0.000 A 
ATOM     12  C   UNL d   1     -41.487-122.350 -55.572  0.00  0.00     0.000 A 
ATOM     13  C   UNL d   1     -41.320-122.648 -54.822  0.00  0.00     0.002 A 
ENDBRANCH   3   8
TORSDOF 1
ENDMDL
MODEL 3
REMARK VINA RESULT:      -4.5      3.207      4.369
REMARK  1 active torsions:
REMARK  status: ('A' for Active; 'I' for Inactive)
REMARK    1  A    between atoms: C_8  and  C_3 
ROOT
ATOM      1  N   UNL d   1     -42.736-122.791 -50.037  0.00  0.00    -0.145 NA
ATOM      2  N   UNL d   1     -42.998-122.881 -49.251  0.00  0.00    -0.106 NA
ATOM      3  C   UNL d   1     -41.941-122.889 -50.215  0.00  0.00     0.103 A 
ATOM      4  C   UNL d   1     -42.460-123.066 -48.655  0.00  0.00     0.297 A 
ATOM      5  C   UNL d   1     -41.403-123.076 -49.609  0.00  0.00     0.026 A 
ATOM      6  C   UNL d   1     -41.661-123.162 -48.844  0.00  0.00     0.066 A 
ATOM      7  O   UNL d   1     -42.721-123.154 -47.885  0.00  0.00    -0.264 OA
ENDROOT
BRANCH   3   8
ATOM      8  C   UNL d   1     -41.670-122.804 -50.980  0.00  0.00     0.019 A 
ATOM      9  C   UNL d   1     -41.582-122.038 -51.291  0.00  0.00     0.002 A 
ATOM     10  C   UNL d   1     -41.307-121.943 -52.068  0.00  0.00     0.000 A 
ATOM     11  C   UNL d   1     -41.123-122.608 -52.525  0.00  0.00     0.000 A 
ATOM     12  C   UNL d   1     -41.211-123.365 -52.213  0.00  0.00     0.000 A 
ATOM     13  C   UNL d   1     -41.485-123.456 -51.440  0.00  0.00     0.002 A 
ENDBRANCH   3   8
TORSDOF 1
ENDMDL
