MODEL 1
REMARK VINA RESULT:      37.3      0.000      0.000
REMARK  7 active torsions:
REMARK  status: ('A' for Active; 'I' for Inactive)
REMARK    1  A    between atoms: N_4  and  C_2 
REMARK    2  A    between atoms: S_9  and  C_3 
REMARK    3  A    between atoms: C_8  and  C_13 
REMARK    4  A    between atoms: O_11  and  C_8 
REMARK    5  A    between atoms: C_13  and  S_9 
REMARK    6  A    between atoms: C_14  and  O_11 
REMARK    7  A    between atoms: C_17  and  C_14 
ROOT
ATOM      1  N   UNL d   1      13.819  13.330  -3.237  0.00  0.00    -0.203 NA
ATOM      2  C   UNL d   1      13.646  12.558  -3.012  0.00  0.00     0.152 A 
ATOM      3  C   UNL d   1      13.641  13.588  -4.005  0.00  0.00     0.196 A 
ATOM      4  C   UNL d   1      13.297  12.042  -3.549  0.00  0.00     0.057 A 
ATOM      5  N   UNL d   1      13.292  13.071  -4.544  0.00  0.00    -0.221 NA
ATOM      6  C   UNL d   1      13.119  12.299  -4.317  0.00  0.00     0.087 A 
ATOM      7  C   UNL d   1      12.769  11.779  -4.856  0.00  0.00     0.021 C 
ENDROOT
BRANCH   3   8
ATOM      8  S   UNL d   1      13.817  14.368  -4.230  0.00  0.00    -0.043 SA
BRANCH   8   9
ATOM      9  C   UNL d   1      13.575  14.997  -3.753  0.00  0.00     0.107 C 
BRANCH   9  10
ATOM     10  C   UNL d   1      14.093  15.622  -3.608  0.00  0.00     0.307 C 
ATOM     11  O   UNL d   1      14.563  15.922  -4.211  0.00  0.00    -0.258 OA
BRANCH  10  12
ATOM     12  O   UNL d   1      14.139  15.949  -2.848  0.00  0.00    -0.271 OA
BRANCH  12  13
ATOM     13  C   UNL d   1      14.802  16.384  -2.625  0.00  0.00     0.126 C 
BRANCH  13  14
ATOM     14  C   UNL d   1      15.040  16.399  -1.835  0.00  0.00     0.025 A 
ATOM     15  C   UNL d   1      15.213  17.129  -1.475  0.00  0.00     0.002 A 
ATOM     16  C   UNL d   1      15.451  17.144  -0.685  0.00  0.00     0.000 A 
ATOM     17  C   UNL d   1      15.513  16.430  -0.260  0.00  0.00     0.000 A 
ATOM     18  C   UNL d   1      15.337  15.713  -0.631  0.00  0.00     0.000 A 
ATOM     19  C   UNL d   1      15.102  15.698  -1.414  0.00  0.00     0.002 A 
ENDBRANCH  13  14
ENDBRANCH  12  13
ENDBRANCH  10  12
ENDBRANCH   9  10
ENDBRANCH   8   9
ENDBRANCH   3   8
BRANCH   2  20
ATOM     20  N   UNL d   1      13.821  12.297  -2.248  0.00  0.00    -0.285 N 
ATOM     21  C   UNL d   1      14.609  12.178  -2.028  0.00  0.00     0.108 A 
ATOM     22  C   UNL d   1      14.787  11.919  -1.269  0.00  0.00     0.142 A 
ATOM     23  O   UNL d   1      14.181  11.779  -0.729  0.00  0.00    -0.300 OA
ATOM     24  C   UNL d   1      13.394  11.899  -0.949  0.00  0.00     0.142 A 
ATOM     25  C   UNL d   1      13.215  12.159  -1.711  0.00  0.00     0.108 A 
ENDBRANCH   2  20
TORSDOF 7
ENDMDL
MODEL 2
REMARK VINA RESULT:      38.7      1.474      4.051
REMARK  7 active torsions:
REMARK  status: ('A' for Active; 'I' for Inactive)
REMARK    1  A    between atoms: N_4  and  C_2 
REMARK    2  A    between atoms: S_9  and  C_3 
REMARK    3  A    between atoms: C_8  and  C_13 
REMARK    4  A    between atoms: O_11  and  C_8 
REMARK    5  A    between atoms: C_13  and  S_9 
REMARK    6  A    between atoms: C_14  and  O_11 
REMARK    7  A    between atoms: C_17  and  C_14 
ROOT
ATOM      1  N   UNL d   1      14.149  15.120  -2.976  0.00  0.00    -0.203 NA
ATOM      2  C   UNL d   1      14.607  15.805  -2.969  0.00  0.00     0.152 A 
ATOM      3  C   UNL d   1      13.911  14.789  -3.698  0.00  0.00     0.196 A 
ATOM      4  C   UNL d   1      14.827  16.160  -3.678  0.00  0.00     0.057 A 
ATOM      5  N   UNL d   1      14.131  15.143  -4.408  0.00  0.00    -0.221 NA
ATOM      6  C   UNL d   1      14.589  15.828  -4.399  0.00  0.00     0.087 A 
ATOM      7  C   UNL d   1      14.811  16.185  -5.112  0.00  0.00     0.021 C 
ENDROOT
BRANCH   3   8
ATOM      8  S   UNL d   1      13.450  14.097  -3.702  0.00  0.00    -0.043 SA
BRANCH   8   9
ATOM      9  C   UNL d   1      13.809  13.366  -3.829  0.00  0.00     0.107 C 
BRANCH   9  10
ATOM     10  C   UNL d   1      13.406  12.674  -3.633  0.00  0.00     0.307 C 
ATOM     11  O   UNL d   1      13.059  12.213  -4.218  0.00  0.00    -0.258 OA
BRANCH  10  12
ATOM     12  O   UNL d   1      13.350  12.442  -2.839  0.00  0.00    -0.271 OA
BRANCH  12  13
ATOM     13  C   UNL d   1      13.850  11.857  -2.544  0.00  0.00     0.126 C 
BRANCH  13  14
ATOM     14  C   UNL d   1      14.026  11.831  -1.739  0.00  0.00     0.025 A 
ATOM     15  C   UNL d   1      14.821  11.832  -1.494  0.00  0.00     0.002 A 
ATOM     16  C   UNL d   1      14.997  11.806  -0.689  0.00  0.00     0.000 A 
ATOM     17  C   UNL d   1      14.376  11.779  -0.132  0.00  0.00     0.000 A 
ATOM     18  C   UNL d   1      13.591  11.779  -0.391  0.00  0.00     0.000 A 
ATOM     19  C   UNL d   1      13.417  11.805  -1.189  0.00  0.00     0.002 A 
ENDBRANCH  13  14
ENDBRANCH  12  13
ENDBRANCH  10  12
ENDBRANCH   9  10
ENDBRANCH   8   9
ENDBRANCH   3   8
BRANCH   2  20
ATOM     20  N   UNL d   1      14.846  16.139  -2.252  0.00  0.00    -0.285 N 
ATOM     21  C   UNL d   1      14.933  16.959  -2.192  0.00  0.00     0.108 A 
ATOM     22  C   UNL d   1      15.170  17.294  -1.481  0.00  0.00     0.142 A 
ATOM     23  O   UNL d   1      15.321  16.814  -0.829  0.00  0.00    -0.300 OA
ATOM     24  C   UNL d   1      15.234  15.995  -0.890  0.00  0.00     0.142 A 
ATOM     25  C   UNL d   1      14.995  15.658  -1.604  0.00  0.00     0.108 A 
ENDBRANCH   2  20
TORSDOF 7
ENDMDL
