MODEL 1
REMARK VINA RESULT:      -9.0      0.000      0.000
REMARK  5 active torsions:
REMARK  status: ('A' for Active; 'I' for Inactive)
REMARK    1  A    between atoms: C_9  and  N_1 
REMARK    2  A    between atoms: S_8  and  C_2 
REMARK    3  A    between atoms: C_6  and  C_10 
REMARK       I    between atoms: N_7  and  C_6 
REMARK    4  A    between atoms: C_10  and  S_8 
REMARK    5  A    between atoms: C_13  and  C_9 
ROOT
ATOM      1  N   UNL d   1      53.630  32.374  53.668  0.00  0.00    -0.303 N 
ATOM      2  C   UNL d   1      52.745  33.352  53.870  0.00  0.00     0.049 A 
ATOM      3  C   UNL d   1      52.881  32.623  53.485  0.00  0.00     0.087 A 
ATOM      4  C   UNL d   1      53.434  33.532  54.289  0.00  0.00     0.024 A 
ATOM      5  C   UNL d   1      53.982  32.927  54.164  0.00  0.00     0.065 A 
ATOM      6  C   UNL d   1      53.627  34.171  54.767  0.00  0.00     0.002 A 
ATOM      7  C   UNL d   1      54.722  32.962  54.517  0.00  0.00     0.018 A 
ATOM      8  C   UNL d   1      54.371  34.208  55.122  0.00  0.00     0.000 A 
ATOM      9  C   UNL d   1      54.919  33.604  54.997  0.00  0.00     0.002 A 
ENDROOT
BRANCH   2  10
ATOM     10  S   UNL d   1      52.059  33.806  53.842  0.00  0.00    -0.080 SA
BRANCH  10  11
ATOM     11  C   UNL d   1      51.574  33.790  53.167  0.00  0.00     0.097 C 
BRANCH  11  12
ATOM     12  C   UNL d   1      50.798  34.059  53.198  0.00  0.00     0.272 C 
ATOM     13  N   UNL d   1      50.377  34.223  52.507  0.00  0.00    -0.267 N 
ATOM     14  C   UNL d   1      50.746  34.114  51.774  0.00  0.00     0.110 A 
ATOM     15  C   UNL d   1      49.599  34.492  52.548  0.00  0.00     0.110 A 
ATOM     16  C   UNL d   1      50.338  34.274  51.082  0.00  0.00     0.142 A 
ATOM     17  O   UNL d   1      49.545  34.548  51.119  0.00  0.00    -0.300 OA
ATOM     18  C   UNL d   1      49.180  34.655  51.850  0.00  0.00     0.142 A 
ATOM     19  O   UNL d   1      50.441  34.163  53.926  0.00  0.00    -0.266 OA
ENDBRANCH  11  12
ENDBRANCH  10  11
ENDBRANCH   2  10
BRANCH   1  20
ATOM     20  C   UNL d   1      53.988  31.666  53.394  0.00  0.00     0.080 C 
BRANCH  20  21
ATOM     21  C   UNL d   1      53.568  30.961  53.399  0.00  0.00     0.018 A 
ATOM     22  C   UNL d   1      53.093  30.748  52.758  0.00  0.00     0.002 A 
ATOM     23  C   UNL d   1      52.674  30.039  52.767  0.00  0.00     0.000 A 
ATOM     24  C   UNL d   1      52.723  29.538  53.411  0.00  0.00     0.000 A 
ATOM     25  C   UNL d   1      53.201  29.745  54.066  0.00  0.00     0.000 A 
ATOM     26  C   UNL d   1      53.621  30.459  54.051  0.00  0.00     0.002 A 
ENDBRANCH  20  21
ENDBRANCH   1  20
TORSDOF 5
ENDMDL
MODEL 2
REMARK VINA RESULT:      -8.5      1.898      4.388
REMARK  5 active torsions:
REMARK  status: ('A' for Active; 'I' for Inactive)
REMARK    1  A    between atoms: C_9  and  N_1 
REMARK    2  A    between atoms: S_8  and  C_2 
REMARK    3  A    between atoms: C_6  and  C_10 
REMARK       I    between atoms: N_7  and  C_6 
REMARK    4  A    between atoms: C_10  and  S_8 
REMARK    5  A    between atoms: C_13  and  C_9 
ROOT
ATOM      1  N   UNL d   1      52.905  33.780  53.842  0.00  0.00    -0.303 N 
ATOM      2  C   UNL d   1      53.553  32.616  53.772  0.00  0.00     0.049 A 
ATOM      3  C   UNL d   1      52.880  33.040  53.515  0.00  0.00     0.087 A 
ATOM      4  C   UNL d   1      53.981  33.125  54.263  0.00  0.00     0.024 A 
ATOM      5  C   UNL d   1      53.580  33.845  54.306  0.00  0.00     0.065 A 
ATOM      6  C   UNL d   1      54.685  33.019  54.673  0.00  0.00     0.002 A 
ATOM      7  C   UNL d   1      53.883  34.458  54.760  0.00  0.00     0.018 A 
ATOM      8  C   UNL d   1      54.990  33.635  55.130  0.00  0.00     0.000 A 
ATOM      9  C   UNL d   1      54.590  34.355  55.173  0.00  0.00     0.002 A 
ENDROOT
BRANCH   2  10
ATOM     10  S   UNL d   1      53.754  31.843  53.577  0.00  0.00    -0.080 SA
BRANCH  10  11
ATOM     11  C   UNL d   1      53.289  31.209  53.844  0.00  0.00     0.097 C 
BRANCH  11  12
ATOM     12  C   UNL d   1      53.410  30.446  53.562  0.00  0.00     0.272 C 
ATOM     13  N   UNL d   1      53.349  29.792  54.062  0.00  0.00    -0.267 N 
ATOM     14  C   UNL d   1      53.163  29.911  54.860  0.00  0.00     0.110 A 
ATOM     15  C   UNL d   1      53.473  29.032  53.769  0.00  0.00     0.110 A 
ATOM     16  C   UNL d   1      53.100  29.269  55.365  0.00  0.00     0.142 A 
ATOM     17  O   UNL d   1      53.225  28.492  55.071  0.00  0.00    -0.300 OA
ATOM     18  C   UNL d   1      53.410  28.378  54.276  0.00  0.00     0.142 A 
ATOM     19  O   UNL d   1      53.594  30.338  52.773  0.00  0.00    -0.266 OA
ENDBRANCH  11  12
ENDBRANCH  10  11
ENDBRANCH   2  10
BRANCH   1  20
ATOM     20  C   UNL d   1      52.332  34.383  53.726  0.00  0.00     0.080 C 
BRANCH  20  21
ATOM     21  C   UNL d   1      51.727  34.281  53.181  0.00  0.00     0.018 A 
ATOM     22  C   UNL d   1      51.860  34.405  52.375  0.00  0.00     0.002 A 
ATOM     23  C   UNL d   1      51.250  34.301  51.832  0.00  0.00     0.000 A 
ATOM     24  C   UNL d   1      50.506  34.074  52.084  0.00  0.00     0.000 A 
ATOM     25  C   UNL d   1      50.362  33.946  52.898  0.00  0.00     0.000 A 
ATOM     26  C   UNL d   1      50.979  34.052  53.440  0.00  0.00     0.002 A 
ENDBRANCH  20  21
ENDBRANCH   1  20
TORSDOF 5
ENDMDL
MODEL 3
REMARK VINA RESULT:      -8.2      1.822      4.477
REMARK  5 active torsions:
REMARK  status: ('A' for Active; 'I' for Inactive)
REMARK    1  A    between atoms: C_9  and  N_1 
REMARK    2  A    between atoms: S_8  and  C_2 
REMARK    3  A    between atoms: C_6  and  C_10 
REMARK       I    between atoms: N_7  and  C_6 
REMARK    4  A    between atoms: C_10  and  S_8 
REMARK    5  A    between atoms: C_13  and  C_9 
ROOT
ATOM      1  N   UNL d   1      52.966  33.818  53.623  0.00  0.00    -0.303 N 
ATOM      2  C   UNL d   1      52.539  32.667  53.100  0.00  0.00     0.049 A 
ATOM      3  C   UNL d   1      53.169  33.045  53.497  0.00  0.00     0.087 A 
ATOM      4  C   UNL d   1      51.951  33.239  52.992  0.00  0.00     0.024 A 
ATOM      5  C   UNL d   1      52.215  33.950  53.316  0.00  0.00     0.065 A 
ATOM      6  C   UNL d   1      51.210  33.195  52.640  0.00  0.00     0.002 A 
ATOM      7  C   UNL d   1      51.739  34.618  53.286  0.00  0.00     0.018 A 
ATOM      8  C   UNL d   1      50.730  33.866  52.609  0.00  0.00     0.000 A 
ATOM      9  C   UNL d   1      50.994  34.578  52.933  0.00  0.00     0.002 A 
ENDROOT
BRANCH   2  10
ATOM     10  S   UNL d   1      52.504  31.881  52.861  0.00  0.00    -0.080 SA
BRANCH  10  11
ATOM     11  C   UNL d   1      52.903  31.294  53.292  0.00  0.00     0.097 C 
BRANCH  11  12
ATOM     12  C   UNL d   1      52.894  30.509  53.048  0.00  0.00     0.272 C 
ATOM     13  N   UNL d   1      53.022  29.894  53.584  0.00  0.00    -0.267 N 
ATOM     14  C   UNL d   1      53.161  30.076  54.380  0.00  0.00     0.110 A 
ATOM     15  C   UNL d   1      53.011  29.111  53.329  0.00  0.00     0.110 A 
ATOM     16  C   UNL d   1      53.289  29.475  54.920  0.00  0.00     0.142 A 
ATOM     17  O   UNL d   1      53.279  28.674  54.665  0.00  0.00    -0.300 OA
ATOM     18  C   UNL d   1      53.140  28.497  53.872  0.00  0.00     0.142 A 
ATOM     19  O   UNL d   1      52.756  30.339  52.260  0.00  0.00    -0.266 OA
ENDBRANCH  11  12
ENDBRANCH  10  11
ENDBRANCH   2  10
BRANCH   1  20
ATOM     20  C   UNL d   1      53.445  34.391  54.006  0.00  0.00     0.080 C 
BRANCH  20  21
ATOM     21  C   UNL d   1      54.054  34.157  54.504  0.00  0.00     0.018 A 
ATOM     22  C   UNL d   1      53.901  33.952  55.290  0.00  0.00     0.002 A 
ATOM     23  C   UNL d   1      54.515  33.718  55.786  0.00  0.00     0.000 A 
ATOM     24  C   UNL d   1      55.283  33.685  55.507  0.00  0.00     0.000 A 
ATOM     25  C   UNL d   1      55.447  33.891  54.713  0.00  0.00     0.000 A 
ATOM     26  C   UNL d   1      54.826  34.126  54.218  0.00  0.00     0.002 A 
ENDBRANCH  20  21
ENDBRANCH   1  20
TORSDOF 5
ENDMDL
MODEL 4
REMARK VINA RESULT:      -8.1      0.872      2.892
REMARK  5 active torsions:
REMARK  status: ('A' for Active; 'I' for Inactive)
REMARK    1  A    between atoms: C_9  and  N_1 
REMARK    2  A    between atoms: S_8  and  C_2 
REMARK    3  A    between atoms: C_6  and  C_10 
REMARK       I    between atoms: N_7  and  C_6 
REMARK    4  A    between atoms: C_10  and  S_8 
REMARK    5  A    between atoms: C_13  and  C_9 
ROOT
ATOM      1  N   UNL d   1      53.557  32.126  54.116  0.00  0.00    -0.303 N 
ATOM      2  C   UNL d   1      52.718  32.363  53.107  0.00  0.00     0.049 A 
ATOM      3  C   UNL d   1      53.164  32.713  53.720  0.00  0.00     0.087 A 
ATOM      4  C   UNL d   1      52.855  31.549  53.147  0.00  0.00     0.024 A 
ATOM      5  C   UNL d   1      53.375  31.403  53.771  0.00  0.00     0.065 A 
ATOM      6  C   UNL d   1      52.570  30.928  52.692  0.00  0.00     0.002 A 
ATOM      7  C   UNL d   1      53.609  30.634  53.940  0.00  0.00     0.018 A 
ATOM      8  C   UNL d   1      52.805  30.154  52.861  0.00  0.00     0.000 A 
ATOM      9  C   UNL d   1      53.325  30.008  53.485  0.00  0.00     0.002 A 
ENDROOT
BRANCH   2  10
ATOM     10  S   UNL d   1      52.234  32.749  52.565  0.00  0.00    -0.080 SA
BRANCH  10  11
ATOM     11  C   UNL d   1      51.785  33.408  52.799  0.00  0.00     0.097 C 
BRANCH  11  12
ATOM     12  C   UNL d   1      51.291  33.794  52.268  0.00  0.00     0.272 C 
ATOM     13  N   UNL d   1      50.623  34.205  52.528  0.00  0.00    -0.267 N 
ATOM     14  C   UNL d   1      50.454  34.226  53.338  0.00  0.00     0.110 A 
ATOM     15  C   UNL d   1      50.135  34.589  51.988  0.00  0.00     0.110 A 
ATOM     16  C   UNL d   1      49.795  34.630  53.608  0.00  0.00     0.142 A 
ATOM     17  O   UNL d   1      49.293  35.023  53.061  0.00  0.00    -0.300 OA
ATOM     18  C   UNL d   1      49.465  35.001  52.255  0.00  0.00     0.142 A 
ATOM     19  O   UNL d   1      51.466  33.769  51.470  0.00  0.00    -0.266 OA
ENDBRANCH  11  12
ENDBRANCH  10  11
ENDBRANCH   2  10
BRANCH   1  20
ATOM     20  C   UNL d   1      54.069  32.240  54.772  0.00  0.00     0.080 C 
BRANCH  20  21
ATOM     21  C   UNL d   1      54.442  32.962  54.886  0.00  0.00     0.018 A 
ATOM     22  C   UNL d   1      55.125  33.155  54.465  0.00  0.00     0.002 A 
ATOM     23  C   UNL d   1      55.497  33.881  54.583  0.00  0.00     0.000 A 
ATOM     24  C   UNL d   1      55.193  34.418  55.120  0.00  0.00     0.000 A 
ATOM     25  C   UNL d   1      54.501  34.231  55.552  0.00  0.00     0.000 A 
ATOM     26  C   UNL d   1      54.131  33.499  55.428  0.00  0.00     0.002 A 
ENDBRANCH  20  21
ENDBRANCH   1  20
TORSDOF 5
ENDMDL
