MODEL 1
REMARK VINA RESULT:      48.3      0.000      0.000
REMARK  3 active torsions:
REMARK  status: ('A' for Active; 'I' for Inactive)
REMARK    1  A    between atoms: N_5  and  S_1 
REMARK    2  A    between atoms: C_6  and  S_1 
REMARK    3  A    between atoms: C_2  and  C_13 
ROOT
ATOM      1  N   UNL d   1      45.425 -18.081  40.579  0.00  0.00    -0.229 N 
ATOM      2  C   UNL d   1      44.855 -17.051  39.095  0.00  0.00     0.039 A 
ATOM      3  C   UNL d   1      45.902 -18.127  39.761  0.00  0.00     0.092 A 
ATOM      4  C   UNL d   1      44.661 -17.519  40.654  0.00  0.00     0.092 A 
ATOM      5  C   UNL d   1      45.617 -17.609  39.014  0.00  0.00     0.023 A 
ATOM      6  C   UNL d   1      44.378 -17.006  39.913  0.00  0.00     0.023 A 
ENDROOT
BRANCH   1   7
ATOM      7  S   UNL d   1      45.681 -18.547  41.254  0.00  0.00     0.271 S 
ATOM      8  O   UNL d   1      46.311 -18.846  40.815  0.00  0.00    -0.200 OA
ATOM      9  O   UNL d   1      45.050 -18.249  41.695  0.00  0.00    -0.200 OA
BRANCH   7  10
ATOM     10  C   UNL d   1      45.923 -18.993  41.905  0.00  0.00     0.106 A 
ATOM     11  C   UNL d   1      45.838 -18.676  42.668  0.00  0.00     0.040 A 
ATOM     12  C   UNL d   1      46.080 -19.124  43.308  0.00  0.00     0.123 A 
ATOM     13  O   UNL d   1      46.003 -18.824  44.077  0.00  0.00    -0.301 OA
ATOM     14  C   UNL d   1      46.407 -19.882  43.203  0.00  0.00     0.123 A 
ATOM     15  C   UNL d   1      46.250 -19.245  44.949  0.00  0.00     0.149 A 
ATOM     16  C   UNL d   1      46.638 -20.162  44.727  0.00  0.00     0.149 A 
ATOM     17  O   UNL d   1      46.647 -20.324  43.848  0.00  0.00    -0.301 OA
ATOM     18  C   UNL d   1      46.483 -20.181  42.426  0.00  0.00     0.028 A 
ATOM     19  C   UNL d   1      46.244 -19.741  41.784  0.00  0.00     0.015 A 
ENDBRANCH   7  10
ENDBRANCH   1   7
BRANCH   2  20
ATOM     20  C   UNL d   1      44.570 -16.534  38.348  0.00  0.00     0.163 A 
ATOM     21  N   UNL d   1      45.004 -15.988  37.986  0.00  0.00    -0.225 NA
ATOM     22  C   UNL d   1      44.574 -15.689  37.400  0.00  0.00     0.101 A 
ATOM     23  C   UNL d   1      44.748 -15.127  36.868  0.00  0.00     0.021 A 
ATOM     24  C   UNL d   1      43.876 -16.047  37.399  0.00  0.00     0.101 A 
ATOM     25  C   UNL d   1      44.198 -14.936  36.335  0.00  0.00     0.002 A 
ATOM     26  C   UNL d   1      43.495 -15.294  36.330  0.00  0.00     0.002 A 
ATOM     27  C   UNL d   1      43.342 -15.843  36.859  0.00  0.00     0.021 A 
ATOM     28  N   UNL d   1      43.870 -16.571  37.985  0.00  0.00    -0.225 NA
ENDBRANCH   2  20
TORSDOF 3
ENDMDL
