MODEL 1
REMARK VINA RESULT:      54.5      0.000      0.000
REMARK  4 active torsions:
REMARK  status: ('A' for Active; 'I' for Inactive)
REMARK    1  A    between atoms: C_2  and  S_1 
REMARK    2  A    between atoms: N_3  and  S_1 
REMARK    3  A    between atoms: C_4  and  C_9 
REMARK       I    between atoms: N_5  and  C_4 
REMARK    4  A    between atoms: C_6  and  N_5 
ROOT
ATOM      1  C   UNL d   1     -55.172-101.451 -42.998  0.00  0.00     0.104 A 
ATOM      2  C   UNL d   1     -55.154-101.355 -42.183  0.00  0.00     0.018 A 
ATOM      3  C   UNL d   1     -55.000-102.000 -41.698  0.00  0.00     0.059 A 
ATOM      4  C   UNL d   1     -55.035-102.199 -43.330  0.00  0.00     0.012 A 
ATOM      5  C   UNL d   1     -54.864-102.745 -42.026  0.00  0.00     0.005 A 
ATOM      6  C   UNL d   1     -54.882-102.841 -42.845  0.00  0.00     0.001 A 
ATOM      7  C   UNL d   1     -55.053-102.299 -44.154  0.00  0.00     0.001 C 
ENDROOT
BRANCH   1   8
ATOM      8  S   UNL d   1     -55.326-100.809 -43.484  0.00  0.00     0.271 S 
ATOM      9  O   UNL d   1     -55.379-101.320 -44.127  0.00  0.00    -0.200 OA
ATOM     10  O   UNL d   1     -55.271-100.307 -42.839  0.00  0.00    -0.200 OA
BRANCH   8  11
ATOM     11  N   UNL d   1     -55.480-100.173 -43.980  0.00  0.00    -0.229 N 
ATOM     12  C   UNL d   1     -56.241 -99.812 -43.830  0.00  0.00     0.092 A 
ATOM     13  C   UNL d   1     -56.602 -99.262 -44.113  0.00  0.00     0.020 A 
ATOM     14  C   UNL d   1     -56.344 -98.774 -44.735  0.00  0.00     0.002 A 
ATOM     15  C   UNL d   1     -55.587 -98.836 -45.161  0.00  0.00     0.002 A 
ATOM     16  C   UNL d   1     -54.940 -99.421 -45.029  0.00  0.00     0.020 A 
ATOM     17  C   UNL d   1     -54.936-100.035 -44.457  0.00  0.00     0.092 A 
ENDBRANCH   8  11
ENDBRANCH   1   8
BRANCH   3  18
ATOM     18  C   UNL d   1     -54.981-101.905 -40.887  0.00  0.00     0.281 C 
ATOM     19  N   UNL d   1     -55.187-102.527 -40.395  0.00  0.00    -0.187 NA
ATOM     20  O   UNL d   1     -54.780-101.268 -40.742  0.00  0.00    -0.265 OA
BRANCH  19  21
ATOM     21  C   UNL d   1     -55.168-102.431 -39.568  0.00  0.00     0.194 A 
ATOM     22  N   UNL d   1     -54.719-101.870 -39.162  0.00  0.00    -0.106 NA
ATOM     23  O   UNL d   1     -54.869-101.971 -38.345  0.00  0.00    -0.207 OA
ATOM     24  C   UNL d   1     -55.407-102.590 -38.261  0.00  0.00     0.153 A 
ATOM     25  C   UNL d   1     -55.594-102.878 -39.015  0.00  0.00     0.070 A 
ENDBRANCH  19  21
ENDBRANCH   3  18
TORSDOF 4
ENDMDL
