MODEL 1
REMARK VINA RESULT:      -4.3      0.000      0.000
REMARK  1 active torsions:
REMARK  status: ('A' for Active; 'I' for Inactive)
REMARK    1  A    between atoms: C_12  and  N_2 
ROOT
ATOM      1  C   UNL d   1     -41.612-121.911 -52.827  0.00  0.00     0.267 A 
ATOM      2  N   UNL d   1     -41.606-121.843 -52.030  0.00  0.00    -0.271 N 
ATOM      3  C   UNL d   1     -41.490-122.483 -53.194  0.00  0.00     0.081 A 
ATOM      4  C   UNL d   1     -41.304-123.261 -53.000  0.00  0.00     0.105 A 
ATOM      5  O   UNL d   1     -41.209-123.604 -52.388  0.00  0.00    -0.305 OA
ATOM      6  C   UNL d   1     -41.449-122.463 -51.492  0.00  0.00     0.090 A 
ATOM      7  C   UNL d   1     -41.265-123.276 -51.653  0.00  0.00     0.116 A 
ATOM      8  C   UNL d   1     -41.564-122.254 -53.983  0.00  0.00     0.028 A 
ATOM      9  O   UNL d   1     -41.781-121.228 -53.254  0.00  0.00    -0.267 OA
ATOM     10  C   UNL d   1     -41.192-123.817 -53.593  0.00  0.00     0.026 A 
ATOM     11  C   UNL d   1     -41.451-122.811 -54.580  0.00  0.00     0.103 A 
ATOM     12  N   UNL d   1     -41.523-122.590 -55.366  0.00  0.00    -0.148 N 
ATOM     13  C   UNL d   1     -41.264-123.597 -54.384  0.00  0.00     0.023 A 
ATOM     14  C   UNL d   1     -41.489-122.192 -50.686  0.00  0.00     0.020 A 
ATOM     15  C   UNL d   1     -41.123-123.817 -51.017  0.00  0.00     0.026 A 
ATOM     16  C   UNL d   1     -41.346-122.738 -50.049  0.00  0.00     0.002 A 
ATOM     17  C   UNL d   1     -41.162-123.554 -50.218  0.00  0.00     0.002 A 
ENDROOT
BRANCH   2  18
ATOM     18  C   UNL d   1     -41.769-121.104 -51.715  0.00  0.00     0.083 C 
ATOM     19  C   UNL d   1     -41.179-120.542 -51.668  0.00  0.00     0.021 C 
ENDBRANCH   2  18
TORSDOF 1
ENDMDL
