MODEL 1
REMARK VINA RESULT:      86.3      0.000      0.000
REMARK  8 active torsions:
REMARK  status: ('A' for Active; 'I' for Inactive)
REMARK    1  A    between atoms: N_6  and  S_1 
REMARK    2  A    between atoms: C_18  and  S_1 
REMARK    3  A    between atoms: N_2  and  C_4 
REMARK    4  A    between atoms: C_7  and  N_3 
REMARK    5  A    between atoms: C_4  and  C_5 
REMARK    6  A    between atoms: C_10  and  C_4 
REMARK    7  A    between atoms: C_5  and  N_6 
REMARK    8  A    between atoms: O_23  and  C_19 
ROOT
ATOM      1  N   UNL d   1      60.762  48.086  50.542  0.00  0.00    -0.300 N 
ATOM      2  N   UNL d   1      61.187  46.530  50.209  0.00  0.00    -0.301 N 
ATOM      3  C   UNL d   1      60.358  47.465  50.898  0.00  0.00     0.100 A 
ATOM      4  C   UNL d   1      61.378  47.931  50.019  0.00  0.00     0.100 A 
ATOM      5  C   UNL d   1      61.591  47.155  49.852  0.00  0.00     0.100 A 
ATOM      6  C   UNL d   1      60.570  46.685  50.732  0.00  0.00     0.100 A 
ENDROOT
BRANCH   1   7
ATOM      7  C   UNL d   1      60.543  48.871  50.713  0.00  0.00     0.086 C 
BRANCH   7   8
ATOM      8  C   UNL d   1      61.079  49.372  51.091  0.00  0.00     0.130 C 
BRANCH   8   9
ATOM      9  N   UNL d   1      60.892  49.694  51.834  0.00  0.00    -0.155 NA
BRANCH   9  10
ATOM     10  S   UNL d   1      61.452  49.697  52.435  0.00  0.00     0.286 S 
ATOM     11  O   UNL d   1      60.843  49.687  52.997  0.00  0.00    -0.198 OA
ATOM     12  O   UNL d   1      62.056  49.706  51.871  0.00  0.00    -0.198 OA
BRANCH  10  13
ATOM     13  C   UNL d   1      62.016  49.699  53.036  0.00  0.00     0.117 C 
ATOM     14  C   UNL d   1      61.823  49.399  53.788  0.00  0.00     0.014 C 
ENDBRANCH  10  13
ENDBRANCH   9  10
ENDBRANCH   8   9
ENDBRANCH   7   8
BRANCH   7  15
ATOM     15  C   UNL d   1      59.797  49.149  50.506  0.00  0.00     0.037 A 
ATOM     16  C   UNL d   1      59.623  49.313  49.717  0.00  0.00     0.100 A 
ATOM     17  N   UNL d   1      58.872  49.592  49.509  0.00  0.00    -0.242 NA
ATOM     18  C   UNL d   1      58.300  49.706  50.092  0.00  0.00     0.099 A 
ATOM     19  C   UNL d   1      58.475  49.542  50.878  0.00  0.00     0.021 A 
ATOM     20  C   UNL d   1      59.226  49.262  51.086  0.00  0.00     0.005 A 
ENDBRANCH   7  15
ENDBRANCH   1   7
BRANCH   2  21
ATOM     21  C   UNL d   1      61.400  45.755  50.042  0.00  0.00     0.064 A 
ATOM     22  C   UNL d   1      61.132  45.138  50.522  0.00  0.00     0.020 A 
ATOM     23  C   UNL d   1      61.346  44.363  50.354  0.00  0.00     0.026 A 
ATOM     24  C   UNL d   1      61.831  44.197  49.703  0.00  0.00     0.094 A 
ATOM     25  C   UNL d   1      62.099  44.814  49.222  0.00  0.00     0.026 A 
ATOM     26  C   UNL d   1      61.885  45.589  49.390  0.00  0.00     0.020 A 
BRANCH  24  27
ATOM     27  O   UNL d   1      62.051  43.413  49.528  0.00  0.00    -0.328 OA
ATOM     28  C   UNL d   1      62.733  43.254  49.078  0.00  0.00     0.181 C 
ENDBRANCH  24  27
ENDBRANCH   2  21
TORSDOF 8
ENDMDL
