MODEL 1
REMARK VINA RESULT:      -8.8      0.000      0.000
REMARK  2 active torsions:
REMARK  status: ('A' for Active; 'I' for Inactive)
REMARK    1  A    between atoms: C_13  and  N_5 
REMARK    2  A    between atoms: C_19  and  C_12 
ROOT
ATOM      1  C   UNL d   1     -48.203  12.330  22.932  0.00  0.00     0.170 A 
ATOM      2  C   UNL d   1     -47.701  11.809  23.280  0.00  0.00     0.093 A 
ATOM      3  N   UNL d   1     -46.610  12.561  22.868  0.00  0.00    -0.256 N 
ATOM      4  C   UNL d   1     -46.896  11.916  23.254  0.00  0.00     0.176 A 
ATOM      5  N   UNL d   1     -48.996  12.217  22.962  0.00  0.00    -0.212 N 
ATOM      6  N   UNL d   1     -47.898  12.975  22.548  0.00  0.00    -0.206 NA
ATOM      7  N   UNL d   1     -46.404  11.393  23.603  0.00  0.00    -0.128 NA
ATOM      8  N   UNL d   1     -49.286  11.569  23.349  0.00  0.00    -0.162 NA
ATOM      9  C   UNL d   1     -47.112  13.083  22.520  0.00  0.00     0.187 A 
ATOM     10  N   UNL d   1     -45.321  12.154  23.185  0.00  0.00    -0.128 NA
ATOM     11  C   UNL d   1     -48.794  11.046  23.698  0.00  0.00     0.127 A 
ATOM     12  C   UNL d   1     -45.817  12.675  22.837  0.00  0.00     0.172 A 
ENDROOT
BRANCH   5  13
ATOM     13  C   UNL d   1     -49.505  12.758  22.602  0.00  0.00     0.085 A 
ATOM     14  C   UNL d   1     -49.807  13.385  23.030  0.00  0.00     0.019 A 
ATOM     15  C   UNL d   1     -50.323  13.932  22.660  0.00  0.00     0.002 A 
ATOM     16  C   UNL d   1     -50.650  14.605  23.111  0.00  0.00     0.000 C 
ATOM     17  C   UNL d   1     -50.529  13.838  21.860  0.00  0.00     0.000 A 
ATOM     18  C   UNL d   1     -50.215  13.193  21.428  0.00  0.00     0.002 A 
ATOM     19  C   UNL d   1     -51.064  14.403  21.473  0.00  0.00     0.000 C 
ATOM     20  C   UNL d   1     -49.707  12.655  21.793  0.00  0.00     0.019 A 
ENDBRANCH   5  13
BRANCH  12  21
ATOM     21  C   UNL d   1     -45.515  13.316  22.455  0.00  0.00     0.039 C 
ATOM     22  C   UNL d   1     -44.780  13.287  22.147  0.00  0.00     0.003 C 
ENDBRANCH  12  21
TORSDOF 2
ENDMDL
MODEL 2
REMARK VINA RESULT:      -8.3      1.214      2.318
REMARK  2 active torsions:
REMARK  status: ('A' for Active; 'I' for Inactive)
REMARK    1  A    between atoms: C_13  and  N_5 
REMARK    2  A    between atoms: C_19  and  C_12 
ROOT
ATOM      1  C   UNL d   1     -47.347  13.895  22.838  0.00  0.00     0.170 A 
ATOM      2  C   UNL d   1     -46.547  13.839  22.806  0.00  0.00     0.093 A 
ATOM      3  N   UNL d   1     -46.606  12.519  23.229  0.00  0.00    -0.256 N 
ATOM      4  C   UNL d   1     -46.163  13.151  23.001  0.00  0.00     0.176 A 
ATOM      5  N   UNL d   1     -47.718  14.579  22.644  0.00  0.00    -0.212 N 
ATOM      6  N   UNL d   1     -47.778  13.250  23.070  0.00  0.00    -0.206 NA
ATOM      7  N   UNL d   1     -45.367  13.103  22.966  0.00  0.00    -0.128 NA
ATOM      8  N   UNL d   1     -47.274  15.215  22.415  0.00  0.00    -0.162 NA
ATOM      9  C   UNL d   1     -47.407  12.575  23.261  0.00  0.00     0.187 A 
ATOM     10  N   UNL d   1     -45.440  11.784  23.390  0.00  0.00    -0.128 NA
ATOM     11  C   UNL d   1     -46.477  15.168  22.380  0.00  0.00     0.127 A 
ATOM     12  C   UNL d   1     -46.236  11.835  23.423  0.00  0.00     0.172 A 
ENDROOT
BRANCH   5  13
ATOM     13  C   UNL d   1     -48.541  14.628  22.680  0.00  0.00     0.085 A 
ATOM     14  C   UNL d   1     -48.994  14.384  22.045  0.00  0.00     0.019 A 
ATOM     15  C   UNL d   1     -49.830  14.435  22.086  0.00  0.00     0.002 A 
ATOM     16  C   UNL d   1     -50.321  14.177  21.412  0.00  0.00     0.000 C 
ATOM     17  C   UNL d   1     -50.198  14.733  22.769  0.00  0.00     0.000 A 
ATOM     18  C   UNL d   1     -49.726  14.981  23.415  0.00  0.00     0.002 A 
ATOM     19  C   UNL d   1     -51.064  14.787  22.814  0.00  0.00     0.000 C 
ATOM     20  C   UNL d   1     -48.904  14.930  23.375  0.00  0.00     0.019 A 
ENDBRANCH   5  13
BRANCH  12  21
ATOM     21  C   UNL d   1     -46.666  11.194  23.653  0.00  0.00     0.039 C 
ATOM     22  C   UNL d   1     -46.320  10.476  23.696  0.00  0.00     0.003 C 
ENDBRANCH  12  21
TORSDOF 2
ENDMDL
MODEL 3
REMARK VINA RESULT:      -7.5      1.331      2.127
REMARK  2 active torsions:
REMARK  status: ('A' for Active; 'I' for Inactive)
REMARK    1  A    between atoms: C_13  and  N_5 
REMARK    2  A    between atoms: C_19  and  C_12 
ROOT
ATOM      1  C   UNL d   1     -46.297  12.642  22.736  0.00  0.00     0.170 A 
ATOM      2  C   UNL d   1     -45.806  12.047  22.959  0.00  0.00     0.093 A 
ATOM      3  N   UNL d   1     -44.768  12.609  22.229  0.00  0.00    -0.256 N 
ATOM      4  C   UNL d   1     -45.034  12.020  22.710  0.00  0.00     0.176 A 
ATOM      5  N   UNL d   1     -47.058  12.661  22.988  0.00  0.00    -0.212 N 
ATOM      6  N   UNL d   1     -46.014  13.226  22.252  0.00  0.00    -0.206 NA
ATOM      7  N   UNL d   1     -44.552  11.425  22.936  0.00  0.00    -0.128 NA
ATOM      8  N   UNL d   1     -47.327  12.071  23.471  0.00  0.00    -0.162 NA
ATOM      9  C   UNL d   1     -45.259  13.204  22.006  0.00  0.00     0.187 A 
ATOM     10  N   UNL d   1     -43.522  11.997  22.202  0.00  0.00    -0.128 NA
ATOM     11  C   UNL d   1     -46.845  11.475  23.697  0.00  0.00     0.127 A 
ATOM     12  C   UNL d   1     -44.007  12.591  21.977  0.00  0.00     0.172 A 
ENDROOT
BRANCH   5  13
ATOM     13  C   UNL d   1     -47.556  13.276  22.754  0.00  0.00     0.085 A 
ATOM     14  C   UNL d   1     -48.125  13.147  22.181  0.00  0.00     0.019 A 
ATOM     15  C   UNL d   1     -48.628  13.775  21.946  0.00  0.00     0.002 A 
ATOM     16  C   UNL d   1     -49.239  13.646  21.334  0.00  0.00     0.000 C 
ATOM     17  C   UNL d   1     -48.551  14.526  22.293  0.00  0.00     0.000 A 
ATOM     18  C   UNL d   1     -47.966  14.649  22.880  0.00  0.00     0.002 A 
ATOM     19  C   UNL d   1     -49.072  15.179  22.052  0.00  0.00     0.000 C 
ATOM     20  C   UNL d   1     -47.470  14.031  23.111  0.00  0.00     0.019 A 
ENDBRANCH   5  13
BRANCH  12  21
ATOM     21  C   UNL d   1     -43.727  13.172  21.496  0.00  0.00     0.039 C 
ATOM     22  C   UNL d   1     -43.000  13.107  21.174  0.00  0.00     0.003 C 
ENDBRANCH  12  21
TORSDOF 2
ENDMDL
MODEL 4
REMARK VINA RESULT:      -6.5      1.481      2.521
REMARK  2 active torsions:
REMARK  status: ('A' for Active; 'I' for Inactive)
REMARK    1  A    between atoms: C_13  and  N_5 
REMARK    2  A    between atoms: C_19  and  C_12 
ROOT
ATOM      1  C   UNL d   1     -46.570  12.478  22.785  0.00  0.00     0.170 A 
ATOM      2  C   UNL d   1     -45.809  12.679  22.627  0.00  0.00     0.093 A 
ATOM      3  N   UNL d   1     -45.365  11.478  23.162  0.00  0.00    -0.256 N 
ATOM      4  C   UNL d   1     -45.193  12.183  22.813  0.00  0.00     0.176 A 
ATOM      5  N   UNL d   1     -47.172  12.975  22.598  0.00  0.00    -0.212 N 
ATOM      6  N   UNL d   1     -46.725  11.765  23.136  0.00  0.00    -0.206 NA
ATOM      7  N   UNL d   1     -44.440  12.391  22.653  0.00  0.00    -0.128 NA
ATOM      8  N   UNL d   1     -47.002  13.683  22.248  0.00  0.00    -0.162 NA
ATOM      9  C   UNL d   1     -46.126  11.277  23.319  0.00  0.00     0.187 A 
ATOM     10  N   UNL d   1     -44.008  11.186  23.190  0.00  0.00    -0.128 NA
ATOM     11  C   UNL d   1     -46.248  13.891  22.087  0.00  0.00     0.127 A 
ATOM     12  C   UNL d   1     -44.764  10.982  23.349  0.00  0.00     0.172 A 
ENDROOT
BRANCH   5  13
ATOM     13  C   UNL d   1     -47.951  12.760  22.764  0.00  0.00     0.085 A 
ATOM     14  C   UNL d   1     -48.408  12.400  22.190  0.00  0.00     0.019 A 
ATOM     15  C   UNL d   1     -49.199  12.183  22.362  0.00  0.00     0.002 A 
ATOM     16  C   UNL d   1     -49.694  11.798  21.754  0.00  0.00     0.000 C 
ATOM     17  C   UNL d   1     -49.520  12.334  23.114  0.00  0.00     0.000 A 
ATOM     18  C   UNL d   1     -49.045  12.704  23.696  0.00  0.00     0.002 A 
ATOM     19  C   UNL d   1     -50.340  12.111  23.296  0.00  0.00     0.000 C 
ATOM     20  C   UNL d   1     -48.266  12.917  23.526  0.00  0.00     0.019 A 
ENDBRANCH   5  13
BRANCH  12  21
ATOM     21  C   UNL d   1     -44.919  10.273  23.698  0.00  0.00     0.039 C 
ATOM     22  C   UNL d   1     -44.405   9.668  23.618  0.00  0.00     0.003 C 
ENDBRANCH  12  21
TORSDOF 2
ENDMDL
MODEL 5
REMARK VINA RESULT:      -6.4      1.484      4.433
REMARK  2 active torsions:
REMARK  status: ('A' for Active; 'I' for Inactive)
REMARK    1  A    between atoms: C_13  and  N_5 
REMARK    2  A    between atoms: C_19  and  C_12 
ROOT
ATOM      1  C   UNL d   1     -47.804  13.947  22.455  0.00  0.00     0.170 A 
ATOM      2  C   UNL d   1     -48.345  14.538  22.401  0.00  0.00     0.093 A 
ATOM      3  N   UNL d   1     -49.311  13.636  21.975  0.00  0.00    -0.256 N 
ATOM      4  C   UNL d   1     -49.107  14.393  22.160  0.00  0.00     0.176 A 
ATOM      5  N   UNL d   1     -47.054  14.099  22.694  0.00  0.00    -0.212 N 
ATOM      6  N   UNL d   1     -48.026  13.191  22.265  0.00  0.00    -0.206 NA
ATOM      7  N   UNL d   1     -49.639  14.986  22.109  0.00  0.00    -0.128 NA
ATOM      8  N   UNL d   1     -46.848  14.858  22.881  0.00  0.00    -0.162 NA
ATOM      9  C   UNL d   1     -48.770  13.045  22.029  0.00  0.00     0.187 A 
ATOM     10  N   UNL d   1     -50.595  14.074  21.684  0.00  0.00    -0.128 NA
ATOM     11  C   UNL d   1     -47.380  15.452  22.830  0.00  0.00     0.127 A 
ATOM     12  C   UNL d   1     -50.061  13.483  21.736  0.00  0.00     0.172 A 
ENDROOT
BRANCH   5  13
ATOM     13  C   UNL d   1     -46.505  13.485  22.747  0.00  0.00     0.085 A 
ATOM     14  C   UNL d   1     -45.871  13.457  22.231  0.00  0.00     0.019 A 
ATOM     15  C   UNL d   1     -45.315  12.832  22.288  0.00  0.00     0.002 A 
ATOM     16  C   UNL d   1     -44.636  12.794  21.740  0.00  0.00     0.000 C 
ATOM     17  C   UNL d   1     -45.406  12.242  22.867  0.00  0.00     0.000 A 
ATOM     18  C   UNL d   1     -46.058  12.279  23.392  0.00  0.00     0.002 A 
ATOM     19  C   UNL d   1     -44.832  11.593  22.929  0.00  0.00     0.000 C 
ATOM     20  C   UNL d   1     -46.605  12.894  23.335  0.00  0.00     0.019 A 
ENDBRANCH   5  13
BRANCH  12  21
ATOM     21  C   UNL d   1     -50.279  12.732  21.548  0.00  0.00     0.039 C 
ATOM     22  C   UNL d   1     -51.047  12.562  21.412  0.00  0.00     0.003 C 
ENDBRANCH  12  21
TORSDOF 2
ENDMDL
MODEL 6
REMARK VINA RESULT:      -6.4      7.821      9.791
REMARK  2 active torsions:
REMARK  status: ('A' for Active; 'I' for Inactive)
REMARK    1  A    between atoms: C_13  and  N_5 
REMARK    2  A    between atoms: C_19  and  C_12 
ROOT
ATOM      1  C   UNL d   1     -39.962  14.442  20.120  0.00  0.00     0.170 A 
ATOM      2  C   UNL d   1     -40.492  14.397  19.519  0.00  0.00     0.093 A 
ATOM      3  N   UNL d   1     -39.504  13.930  18.663  0.00  0.00    -0.256 N 
ATOM      4  C   UNL d   1     -40.272  14.140  18.780  0.00  0.00     0.176 A 
ATOM      5  N   UNL d   1     -40.188  14.697  20.847  0.00  0.00    -0.212 N 
ATOM      6  N   UNL d   1     -39.193  14.227  19.985  0.00  0.00    -0.206 NA
ATOM      7  N   UNL d   1     -40.805  14.098  18.188  0.00  0.00    -0.128 NA
ATOM      8  N   UNL d   1     -40.959  14.909  20.966  0.00  0.00    -0.162 NA
ATOM      9  C   UNL d   1     -38.974  13.975  19.265  0.00  0.00     0.187 A 
ATOM     10  N   UNL d   1     -39.808  13.632  17.342  0.00  0.00    -0.128 NA
ATOM     11  C   UNL d   1     -41.492  14.867  20.373  0.00  0.00     0.127 A 
ATOM     12  C   UNL d   1     -39.278  13.675  17.937  0.00  0.00     0.172 A 
ENDROOT
BRANCH   5  13
ATOM     13  C   UNL d   1     -39.637  14.741  21.459  0.00  0.00     0.085 A 
ATOM     14  C   UNL d   1     -39.494  14.087  21.929  0.00  0.00     0.019 A 
ATOM     15  C   UNL d   1     -38.934  14.135  22.550  0.00  0.00     0.002 A 
ATOM     16  C   UNL d   1     -38.775  13.442  23.057  0.00  0.00     0.000 C 
ATOM     17  C   UNL d   1     -38.523  14.845  22.690  0.00  0.00     0.000 A 
ATOM     18  C   UNL d   1     -38.676  15.510  22.203  0.00  0.00     0.002 A 
ATOM     19  C   UNL d   1     -37.941  14.899  23.333  0.00  0.00     0.000 C 
ATOM     20  C   UNL d   1     -39.227  15.462  21.592  0.00  0.00     0.019 A 
ENDBRANCH   5  13
BRANCH  12  21
ATOM     21  C   UNL d   1     -38.513  13.461  17.805  0.00  0.00     0.039 C 
ATOM     22  C   UNL d   1     -38.294  13.186  17.088  0.00  0.00     0.003 C 
ENDBRANCH  12  21
TORSDOF 2
ENDMDL
MODEL 7
REMARK VINA RESULT:      -6.3      1.322      4.133
REMARK  2 active torsions:
REMARK  status: ('A' for Active; 'I' for Inactive)
REMARK    1  A    between atoms: C_13  and  N_5 
REMARK    2  A    between atoms: C_19  and  C_12 
ROOT
ATOM      1  C   UNL d   1     -48.688  13.147  22.239  0.00  0.00     0.170 A 
ATOM      2  C   UNL d   1     -49.415  13.180  21.900  0.00  0.00     0.093 A 
ATOM      3  N   UNL d   1     -49.770  14.237  22.726  0.00  0.00    -0.256 N 
ATOM      4  C   UNL d   1     -49.968  13.725  22.137  0.00  0.00     0.176 A 
ATOM      5  N   UNL d   1     -48.147  12.605  21.998  0.00  0.00    -0.212 N 
ATOM      6  N   UNL d   1     -48.505  13.669  22.830  0.00  0.00    -0.206 NA
ATOM      7  N   UNL d   1     -50.688  13.751  21.795  0.00  0.00    -0.128 NA
ATOM      8  N   UNL d   1     -48.345  12.090  21.407  0.00  0.00    -0.162 NA
ATOM      9  C   UNL d   1     -49.043  14.204  23.065  0.00  0.00     0.187 A 
ATOM     10  N   UNL d   1     -51.031  14.807  22.627  0.00  0.00    -0.128 NA
ATOM     11  C   UNL d   1     -49.066  12.116  21.064  0.00  0.00     0.127 A 
ATOM     12  C   UNL d   1     -50.309  14.778  22.967  0.00  0.00     0.172 A 
ENDROOT
BRANCH   5  13
ATOM     13  C   UNL d   1     -47.403  12.578  22.353  0.00  0.00     0.085 A 
ATOM     14  C   UNL d   1     -46.783  13.006  22.036  0.00  0.00     0.019 A 
ATOM     15  C   UNL d   1     -46.028  12.976  22.398  0.00  0.00     0.002 A 
ATOM     16  C   UNL d   1     -45.359  13.430  22.066  0.00  0.00     0.000 C 
ATOM     17  C   UNL d   1     -45.908  12.513  23.079  0.00  0.00     0.000 A 
ATOM     18  C   UNL d   1     -46.549  12.078  23.397  0.00  0.00     0.002 A 
ATOM     19  C   UNL d   1     -45.127  12.480  23.457  0.00  0.00     0.000 C 
ATOM     20  C   UNL d   1     -47.292  12.108  23.039  0.00  0.00     0.019 A 
ENDBRANCH   5  13
BRANCH  12  21
ATOM     21  C   UNL d   1     -50.126  15.297  23.555  0.00  0.00     0.039 C 
ATOM     22  C   UNL d   1     -50.601  15.922  23.698  0.00  0.00     0.003 C 
ENDBRANCH  12  21
TORSDOF 2
ENDMDL
MODEL 8
REMARK VINA RESULT:      -6.2      8.290     10.303
REMARK  2 active torsions:
REMARK  status: ('A' for Active; 'I' for Inactive)
REMARK    1  A    between atoms: C_13  and  N_5 
REMARK    2  A    between atoms: C_19  and  C_12 
ROOT
ATOM      1  C   UNL d   1     -39.774  14.561  19.152  0.00  0.00     0.170 A 
ATOM      2  C   UNL d   1     -40.269  14.621  19.782  0.00  0.00     0.093 A 
ATOM      3  N   UNL d   1     -39.244  15.146  20.556  0.00  0.00    -0.256 N 
ATOM      4  C   UNL d   1     -40.012  14.915  20.494  0.00  0.00     0.176 A 
ATOM      5  N   UNL d   1     -40.036  14.270  18.452  0.00  0.00    -0.212 N 
ATOM      6  N   UNL d   1     -39.004  14.798  19.231  0.00  0.00    -0.206 NA
ATOM      7  N   UNL d   1     -40.510  14.971  21.115  0.00  0.00    -0.128 NA
ATOM      8  N   UNL d   1     -40.808  14.038  18.387  0.00  0.00    -0.162 NA
ATOM      9  C   UNL d   1     -38.749  15.085  19.927  0.00  0.00     0.187 A 
ATOM     10  N   UNL d   1     -39.477  15.495  21.880  0.00  0.00    -0.128 NA
ATOM     11  C   UNL d   1     -41.307  14.094  19.009  0.00  0.00     0.127 A 
ATOM     12  C   UNL d   1     -38.981  15.436  21.256  0.00  0.00     0.172 A 
ENDROOT
BRANCH   5  13
ATOM     13  C   UNL d   1     -39.521  14.212  17.810  0.00  0.00     0.085 A 
ATOM     14  C   UNL d   1     -39.068  13.539  17.708  0.00  0.00     0.019 A 
ATOM     15  C   UNL d   1     -38.546  13.484  17.055  0.00  0.00     0.002 A 
ATOM     16  C   UNL d   1     -38.057  12.769  16.939  0.00  0.00     0.000 C 
ATOM     17  C   UNL d   1     -38.488  14.110  16.510  0.00  0.00     0.000 A 
ATOM     18  C   UNL d   1     -38.957  14.795  16.622  0.00  0.00     0.002 A 
ATOM     19  C   UNL d   1     -37.948  14.056  15.832  0.00  0.00     0.000 C 
ATOM     20  C   UNL d   1     -39.470  14.849  17.266  0.00  0.00     0.019 A 
ENDBRANCH   5  13
BRANCH  12  21
ATOM     21  C   UNL d   1     -38.215  15.672  21.333  0.00  0.00     0.039 C 
ATOM     22  C   UNL d   1     -37.940  15.903  22.046  0.00  0.00     0.003 C 
ENDBRANCH  12  21
TORSDOF 2
ENDMDL
