MODEL 1
REMARK VINA RESULT:      -4.0      0.000      0.000
REMARK  5 active torsions:
REMARK  status: ('A' for Active; 'I' for Inactive)
REMARK    1  A    between atoms: N_8  and  C_1 
REMARK    2  A    between atoms: S_2  and  C_7 
REMARK    3  A    between atoms: N_9  and  S_2 
REMARK    4  A    between atoms: C_17  and  N_5 
REMARK       I    between atoms: C_10  and  N_8 
REMARK    5  A    between atoms: C_12  and  C_10 
ROOT
ATOM      1  N   UNL d   1      57.435   0.611  31.911  0.00  0.00    -0.202 NA
ATOM      2  C   UNL d   1      57.333  -0.030  31.389  0.00  0.00     0.279 C 
ATOM      3  O   UNL d   1      56.855  -0.668  31.610  0.00  0.00    -0.265 OA
ENDROOT
BRANCH   2   4
ATOM      4  C   UNL d   1      57.706  -0.025  30.661  0.00  0.00     0.059 A 
ATOM      5  C   UNL d   1      58.162  -0.672  30.419  0.00  0.00     0.019 A 
ATOM      6  C   UNL d   1      58.536  -0.663  29.685  0.00  0.00     0.115 A 
ATOM      7  C   UNL d   1      58.456  -0.006  29.192  0.00  0.00     0.070 A 
ATOM      8  C   UNL d   1      58.005   0.634  29.431  0.00  0.00     0.012 A 
ATOM      9 CL   UNL d   1      58.830   0.003  28.457  0.00  0.00    -0.082 Cl
ATOM     10  C   UNL d   1      57.625   0.632  30.169  0.00  0.00     0.006 A 
BRANCH   6  11
ATOM     11  S   UNL d   1      58.991  -1.313  29.447  0.00  0.00     0.272 S 
ATOM     12  O   UNL d   1      59.609  -1.052  29.933  0.00  0.00    -0.200 OA
ATOM     13  O   UNL d   1      58.377  -1.572  28.964  0.00  0.00    -0.200 OA
BRANCH  11  14
ATOM     14  N   UNL d   1      59.447  -1.957  29.213  0.00  0.00    -0.229 N 
ATOM     15  C   UNL d   1      59.086  -2.682  29.101  0.00  0.00     0.092 A 
ATOM     16  C   UNL d   1      59.544  -3.330  28.867  0.00  0.00     0.020 A 
ATOM     17  C   UNL d   1      60.355  -3.242  28.747  0.00  0.00     0.003 A 
ATOM     18  C   UNL d   1      60.709  -2.505  28.863  0.00  0.00     0.020 A 
ATOM     19  C   UNL d   1      60.254  -1.861  29.096  0.00  0.00     0.092 A 
ENDBRANCH  11  14
ENDBRANCH   6  11
ENDBRANCH   2   4
BRANCH   1  20
ATOM     20  C   UNL d   1      57.060   0.602  32.639  0.00  0.00     0.160 A 
ATOM     21  C   UNL d   1      56.244   0.624  32.774  0.00  0.00     0.298 A 
ATOM     22  N   UNL d   1      56.120   0.605  33.582  0.00  0.00    -0.209 N 
ATOM     23  O   UNL d   1      55.666   0.660  32.195  0.00  0.00    -0.263 OA
ATOM     24  N   UNL d   1      56.857   0.571  33.952  0.00  0.00    -0.238 N 
ATOM     25  C   UNL d   1      57.438   0.569  33.374  0.00  0.00     0.104 A 
ATOM     26  C   UNL d   1      56.986   0.543  34.758  0.00  0.00     0.120 C 
ATOM     27  C   UNL d   1      58.245   0.539  33.496  0.00  0.00     0.022 C 
BRANCH  22  28
ATOM     28  C   UNL d   1      55.394   0.618  33.954  0.00  0.00     0.085 A 
ATOM     29  C   UNL d   1      55.359   0.642  34.772  0.00  0.00     0.019 A 
ATOM     30  C   UNL d   1      54.628   0.655  35.145  0.00  0.00     0.002 A 
ATOM     31  C   UNL d   1      53.940   0.643  34.710  0.00  0.00     0.000 A 
ATOM     32  C   UNL d   1      53.980   0.619  33.883  0.00  0.00     0.002 A 
ATOM     33  C   UNL d   1      54.710   0.606  33.510  0.00  0.00     0.019 A 
ENDBRANCH  22  28
ENDBRANCH   1  20
TORSDOF 5
ENDMDL
