MODEL 1
REMARK VINA RESULT:      -1.6      0.000      0.000
REMARK  5 active torsions:
REMARK  status: ('A' for Active; 'I' for Inactive)
REMARK    1  A    between atoms: N_6  and  C_1 
REMARK    2  A    between atoms: C_11  and  C_5 
REMARK       I    between atoms: C_7  and  N_8 
REMARK    3  A    between atoms: C_10  and  C_7 
REMARK    4  A    between atoms: O_27  and  C_14 
REMARK    5  A    between atoms: O_28  and  C_21 
ROOT
ATOM      1  C   UNL d   1      57.013  -0.277  31.807  0.00  0.00     0.197 A 
ATOM      2  C   UNL d   1      57.498   0.178  32.313  0.00  0.00     0.191 A 
ATOM      3  O   UNL d   1      56.278  -0.381  32.179  0.00  0.00    -0.270 OA
ATOM      4  N   UNL d   1      57.052   0.342  32.979  0.00  0.00    -0.208 NA
ATOM      5  C   UNL d   1      56.336   0.015  32.902  0.00  0.00     0.185 A 
ATOM      6  C   UNL d   1      58.300   0.422  32.163  0.00  0.00     0.124 C 
ATOM      7  N   UNL d   1      59.085   0.670  32.032  0.00  0.00    -0.190 NA
ENDROOT
BRANCH   1   8
ATOM      8  N   UNL d   1      57.432  -0.467  31.111  0.00  0.00    -0.280 N 
ATOM      9  C   UNL d   1      57.581   0.148  30.552  0.00  0.00     0.101 A 
ATOM     10  C   UNL d   1      58.000  -0.042  29.856  0.00  0.00     0.102 A 
ATOM     11  N   UNL d   1      58.266  -0.832  29.720  0.00  0.00    -0.267 N 
ATOM     12  C   UNL d   1      58.685  -1.022  29.024  0.00  0.00     0.288 C 
ATOM     13  C   UNL d   1      58.111  -1.422  30.280  0.00  0.00     0.102 A 
ATOM     14  O   UNL d   1      58.840  -0.433  28.464  0.00  0.00    -0.264 OA
ATOM     15  C   UNL d   1      57.689  -1.221  30.976  0.00  0.00     0.101 A 
BRANCH  12  16
ATOM     16  C   UNL d   1      58.951  -1.808  28.888  0.00  0.00     0.156 A 
ATOM     17  O   UNL d   1      58.578  -2.543  28.956  0.00  0.00    -0.300 OA
ATOM     18  C   UNL d   1      59.114  -3.111  28.750  0.00  0.00     0.123 A 
ATOM     19  C   UNL d   1      59.831  -2.767  28.549  0.00  0.00     0.029 A 
ATOM     20  C   UNL d   1      59.733  -1.952  28.634  0.00  0.00     0.032 A 
ENDBRANCH  12  16
ENDBRANCH   1   8
BRANCH   5  21
ATOM     21  C   UNL d   1      55.907   0.178  33.554  0.00  0.00     0.043 A 
ATOM     22  C   UNL d   1      55.113   0.314  33.507  0.00  0.00     0.030 A 
ATOM     23  C   UNL d   1      54.667   0.482  34.172  0.00  0.00     0.116 A 
ATOM     24  C   UNL d   1      55.031   0.514  34.904  0.00  0.00     0.116 A 
ATOM     25  C   UNL d   1      55.829   0.376  34.946  0.00  0.00     0.026 A 
ATOM     26  C   UNL d   1      56.275   0.208  34.282  0.00  0.00     0.006 A 
BRANCH  23  27
ATOM     27  O   UNL d   1      53.836   0.621  34.086  0.00  0.00    -0.326 OA
ATOM     28  C   UNL d   1      53.478   0.629  33.351  0.00  0.00     0.181 C 
ENDBRANCH  23  27
BRANCH  24  29
ATOM     29  O   UNL d   1      54.597   0.682  35.585  0.00  0.00    -0.326 OA
ATOM     30  C   UNL d   1      54.951   0.647  36.320  0.00  0.00     0.181 C 
ENDBRANCH  24  29
ENDBRANCH   5  21
TORSDOF 5
ENDMDL
