MODEL 1
REMARK VINA RESULT:      80.9      0.000      0.000
REMARK  5 active torsions:
REMARK  status: ('A' for Active; 'I' for Inactive)
REMARK    1  A    between atoms: C_3  and  C_1 
REMARK    2  A    between atoms: N_4  and  C_3 
REMARK    3  A    between atoms: C_6  and  C_3 
REMARK    4  A    between atoms: C_21  and  N_9 
REMARK    5  A    between atoms: C_25  and  C_21 
ROOT
ATOM      1  C   UNL d   1     -51.007  26.063  34.580  0.00  0.00     0.073 C 
ENDROOT
BRANCH   1   2
ATOM      2  C   UNL d   1     -51.345  25.362  34.279  0.00  0.00     0.057 A 
ATOM      3  C   UNL d   1     -52.161  25.270  34.200  0.00  0.00     0.214 A 
ATOM      4  C   UNL d   1     -52.485  24.579  33.903  0.00  0.00     0.120 A 
ATOM      5  O   UNL d   1     -52.656  25.884  34.423  0.00  0.00    -0.285 OA
ATOM      6  N   UNL d   1     -53.283  24.500  33.830  0.00  0.00    -0.241 NA
ATOM      7  C   UNL d   1     -51.986  23.960  33.678  0.00  0.00     0.021 A 
ATOM      8  C   UNL d   1     -53.610  23.807  33.533  0.00  0.00     0.099 A 
ATOM      9  C   UNL d   1     -53.111  23.188  33.308  0.00  0.00     0.021 A 
ATOM     10  C   UNL d   1     -52.291  23.269  33.382  0.00  0.00     0.003 A 
ATOM     11  C   UNL d   1     -51.169  24.040  33.752  0.00  0.00     0.002 A 
ATOM     12  C   UNL d   1     -50.846  24.743  34.054  0.00  0.00     0.005 A 
ENDBRANCH   1   2
BRANCH   1  13
ATOM     13  N   UNL d   1     -51.066  26.217  35.382  0.00  0.00    -0.301 N 
ATOM     14  C   UNL d   1     -51.807  26.354  35.728  0.00  0.00     0.100 A 
ATOM     15  C   UNL d   1     -51.880  26.509  36.528  0.00  0.00     0.100 A 
ATOM     16  N   UNL d   1     -51.185  26.530  37.006  0.00  0.00    -0.297 N 
ATOM     17  C   UNL d   1     -50.448  26.397  36.678  0.00  0.00     0.100 A 
ATOM     18  C   UNL d   1     -50.388  26.239  35.855  0.00  0.00     0.100 A 
BRANCH  16  19
ATOM     19  C   UNL d   1     -51.244  26.685  37.811  0.00  0.00     0.126 C 
BRANCH  19  20
ATOM     20  C   UNL d   1     -51.842  27.151  38.100  0.00  0.00     0.253 C 
ATOM     21  O   UNL d   1     -51.735  27.595  38.789  0.00  0.00    -0.281 OA
ENDBRANCH  19  20
ENDBRANCH  16  19
ENDBRANCH   1  13
BRANCH   1  22
ATOM     22  C   UNL d   1     -50.626  26.581  34.079  0.00  0.00     0.046 A 
ATOM     23  S   UNL d   1     -49.886  26.406  33.773  0.00  0.00    -0.085 SA
ATOM     24  C   UNL d   1     -49.666  27.019  33.306  0.00  0.00     0.035 A 
ATOM     25  C   UNL d   1     -50.259  27.586  33.309  0.00  0.00     0.007 A 
ATOM     26  C   UNL d   1     -50.861  27.320  33.788  0.00  0.00     0.009 A 
ENDBRANCH   1  22
TORSDOF 5
ENDMDL
MODEL 2
REMARK VINA RESULT:      81.1      2.034      2.761
REMARK  5 active torsions:
REMARK  status: ('A' for Active; 'I' for Inactive)
REMARK    1  A    between atoms: C_3  and  C_1 
REMARK    2  A    between atoms: N_4  and  C_3 
REMARK    3  A    between atoms: C_6  and  C_3 
REMARK    4  A    between atoms: C_21  and  N_9 
REMARK    5  A    between atoms: C_25  and  C_21 
ROOT
ATOM      1  C   UNL d   1     -50.537  25.531  33.816  0.00  0.00     0.073 C 
ENDROOT
BRANCH   1   2
ATOM      2  C   UNL d   1     -51.321  25.272  33.694  0.00  0.00     0.057 A 
ATOM      3  C   UNL d   1     -51.517  24.470  33.674  0.00  0.00     0.214 A 
ATOM      4  C   UNL d   1     -52.288  24.224  33.554  0.00  0.00     0.120 A 
ATOM      5  O   UNL d   1     -50.927  23.912  33.776  0.00  0.00    -0.285 OA
ATOM      6  N   UNL d   1     -52.470  23.439  33.536  0.00  0.00    -0.241 NA
ATOM      7  C   UNL d   1     -52.883  24.788  33.451  0.00  0.00     0.021 A 
ATOM      8  C   UNL d   1     -53.244  23.191  33.415  0.00  0.00     0.099 A 
ATOM      9  C   UNL d   1     -53.838  23.754  33.312  0.00  0.00     0.021 A 
ATOM     10  C   UNL d   1     -53.653  24.560  33.330  0.00  0.00     0.003 A 
ATOM     11  C   UNL d   1     -52.700  25.591  33.469  0.00  0.00     0.002 A 
ATOM     12  C   UNL d   1     -51.916  25.835  33.591  0.00  0.00     0.005 A 
ENDBRANCH   1   2
BRANCH   1  13
ATOM     13  N   UNL d   1     -50.393  26.334  33.893  0.00  0.00    -0.301 N 
ATOM     14  C   UNL d   1     -49.974  26.741  33.306  0.00  0.00     0.100 A 
ATOM     15  C   UNL d   1     -49.824  27.543  33.369  0.00  0.00     0.100 A 
ATOM     16  N   UNL d   1     -50.103  27.958  34.049  0.00  0.00    -0.297 N 
ATOM     17  C   UNL d   1     -50.517  27.568  34.636  0.00  0.00     0.100 A 
ATOM     18  C   UNL d   1     -50.664  26.745  34.557  0.00  0.00     0.100 A 
BRANCH  16  19
ATOM     19  C   UNL d   1     -49.958  28.764  34.126  0.00  0.00     0.126 C 
BRANCH  19  20
ATOM     20  C   UNL d   1     -49.449  29.144  33.621  0.00  0.00     0.253 C 
ATOM     21  O   UNL d   1     -49.214  29.922  33.767  0.00  0.00    -0.281 OA
ENDBRANCH  19  20
ENDBRANCH  16  19
ENDBRANCH   1  13
BRANCH   1  22
ATOM     22  C   UNL d   1     -49.929  24.989  33.857  0.00  0.00     0.046 A 
ATOM     23  S   UNL d   1     -49.453  24.936  34.522  0.00  0.00    -0.085 SA
ATOM     24  C   UNL d   1     -48.915  24.357  34.390  0.00  0.00     0.035 A 
ATOM     25  C   UNL d   1     -49.042  24.037  33.644  0.00  0.00     0.007 A 
ATOM     26  C   UNL d   1     -49.673  24.426  33.307  0.00  0.00     0.009 A 
ENDBRANCH   1  22
TORSDOF 5
ENDMDL
