MODEL 1
REMARK VINA RESULT:      -3.0      0.000      0.000
REMARK  3 active torsions:
REMARK  status: ('A' for Active; 'I' for Inactive)
REMARK    1  A    between atoms: C_7  and  C_1 
REMARK    2  A    between atoms: N_9  and  C_7 
REMARK    3  A    between atoms: C_8  and  N_9 
ROOT
ATOM      1  C   UNL d   1      33.235  20.427 -22.055  0.00  0.00     0.146 A 
ATOM      2  C   UNL d   1      33.236  20.408 -22.884  0.00  0.00     0.304 A 
ATOM      3  C   UNL d   1      33.236  19.685 -21.637  0.00  0.00     0.304 A 
ATOM      4  O   UNL d   1      33.238  18.990 -22.040  0.00  0.00    -0.277 OA
ATOM      5  O   UNL d   1      33.238  19.680 -23.277  0.00  0.00    -0.277 OA
ATOM      6  C   UNL d   1      33.239  18.984 -22.893  0.00  0.00     0.203 A 
ATOM      7  O   UNL d   1      33.235  19.696 -20.796  0.00  0.00    -0.259 OA
ATOM      8  O   UNL d   1      33.235  21.161 -23.321  0.00  0.00    -0.259 OA
ATOM      9  C   UNL d   1      33.241  18.578 -23.588  0.00  0.00     0.062 C 
ATOM     10  C   UNL d   1      33.241  18.166 -22.878  0.00  0.00     0.062 C 
ENDROOT
BRANCH   1  11
ATOM     11  C   UNL d   1      33.232  21.140 -21.641  0.00  0.00     0.129 C 
BRANCH  11  12
ATOM     12  N   UNL d   1      32.543  21.404 -21.304  0.00  0.00    -0.057 NA
BRANCH  12  13
ATOM     13  C   UNL d   1      32.513  22.170 -20.977  0.00  0.00     0.750 A 
ATOM     14  N   UNL d   1      31.897  22.703 -21.199  0.00  0.00    -0.058 NA
ATOM     15  C   UNL d   1      31.893  23.462 -20.856  0.00  0.00     0.120 A 
ATOM     16  C   UNL d   1      32.453  23.699 -20.326  0.00  0.00     0.043 A 
ATOM     17  C   UNL d   1      33.051  23.171 -20.116  0.00  0.00     0.120 A 
ATOM     18  N   UNL d   1      33.080  22.424 -20.435  0.00  0.00    -0.058 NA
ENDBRANCH  12  13
ENDBRANCH  11  12
ENDBRANCH   1  11
TORSDOF 3
ENDMDL
MODEL 2
REMARK VINA RESULT:      -2.6      4.132      5.663
REMARK  3 active torsions:
REMARK  status: ('A' for Active; 'I' for Inactive)
REMARK    1  A    between atoms: C_7  and  C_1 
REMARK    2  A    between atoms: N_9  and  C_7 
REMARK    3  A    between atoms: C_8  and  N_9 
ROOT
ATOM      1  C   UNL d   1      30.207  16.705 -24.142  0.00  0.00     0.146 A 
ATOM      2  C   UNL d   1      30.207  16.038 -23.650  0.00  0.00     0.304 A 
ATOM      3  C   UNL d   1      29.456  17.035 -24.370  0.00  0.00     0.304 A 
ATOM      4  O   UNL d   1      28.771  16.705 -24.112  0.00  0.00    -0.277 OA
ATOM      5  O   UNL d   1      29.488  15.716 -23.397  0.00  0.00    -0.277 OA
ATOM      6  C   UNL d   1      28.784  16.019 -23.607  0.00  0.00     0.203 A 
ATOM      7  O   UNL d   1      29.449  17.712 -24.869  0.00  0.00    -0.259 OA
ATOM      8  O   UNL d   1      30.970  15.693 -23.410  0.00  0.00    -0.259 OA
ATOM      9  C   UNL d   1      28.394  15.456 -23.183  0.00  0.00     0.062 C 
ATOM     10  C   UNL d   1      27.966  16.024 -23.594  0.00  0.00     0.062 C 
ENDROOT
BRANCH   1  11
ATOM     11  C   UNL d   1      30.911  17.044 -24.406  0.00  0.00     0.129 C 
BRANCH  11  12
ATOM     12  N   UNL d   1      31.442  17.335 -23.865  0.00  0.00    -0.057 NA
BRANCH  12  13
ATOM     13  C   UNL d   1      32.043  17.855 -24.119  0.00  0.00     0.750 A 
ATOM     14  N   UNL d   1      32.411  17.745 -24.870  0.00  0.00    -0.058 NA
ATOM     15  C   UNL d   1      33.007  18.279 -25.097  0.00  0.00     0.120 A 
ATOM     16  C   UNL d   1      33.241  18.891 -24.625  0.00  0.00     0.043 A 
ATOM     17  C   UNL d   1      32.875  18.990 -23.892  0.00  0.00     0.120 A 
ATOM     18  N   UNL d   1      32.289  18.483 -23.645  0.00  0.00    -0.058 NA
ENDBRANCH  12  13
ENDBRANCH  11  12
ENDBRANCH   1  11
TORSDOF 3
ENDMDL
MODEL 3
REMARK VINA RESULT:      -2.5      4.332      5.798
REMARK  3 active torsions:
REMARK  status: ('A' for Active; 'I' for Inactive)
REMARK    1  A    between atoms: C_7  and  C_1 
REMARK    2  A    between atoms: N_9  and  C_7 
REMARK    3  A    between atoms: C_8  and  N_9 
ROOT
ATOM      1  C   UNL d   1      29.937  16.625 -24.102  0.00  0.00     0.146 A 
ATOM      2  C   UNL d   1      29.223  16.981 -24.324  0.00  0.00     0.304 A 
ATOM      3  C   UNL d   1      29.904  15.936 -23.603  0.00  0.00     0.304 A 
ATOM      4  O   UNL d   1      29.197  15.645 -23.357  0.00  0.00    -0.277 OA
ATOM      5  O   UNL d   1      28.507  16.663 -24.059  0.00  0.00    -0.277 OA
ATOM      6  C   UNL d   1      28.469  16.020 -23.592  0.00  0.00     0.203 A 
ATOM      7  O   UNL d   1      30.626  15.569 -23.374  0.00  0.00    -0.259 OA
ATOM      8  O   UNL d   1      29.246  17.686 -24.835  0.00  0.00    -0.259 OA
ATOM      9  C   UNL d   1      27.665  16.055 -23.577  0.00  0.00     0.062 C 
ATOM     10  C   UNL d   1      28.053  15.459 -23.166  0.00  0.00     0.062 C 
ENDROOT
BRANCH   1  11
ATOM     11  C   UNL d   1      30.664  16.924 -24.355  0.00  0.00     0.129 C 
BRANCH  11  12
ATOM     12  N   UNL d   1      31.064  17.451 -23.884  0.00  0.00    -0.057 NA
BRANCH  12  13
ATOM     13  C   UNL d   1      31.789  17.766 -24.147  0.00  0.00     0.750 A 
ATOM     14  N   UNL d   1      32.139  18.420 -23.745  0.00  0.00    -0.058 NA
ATOM     15  C   UNL d   1      32.864  18.714 -24.030  0.00  0.00     0.120 A 
ATOM     16  C   UNL d   1      33.237  18.395 -24.671  0.00  0.00     0.043 A 
ATOM     17  C   UNL d   1      32.887  17.756 -25.057  0.00  0.00     0.120 A 
ATOM     18  N   UNL d   1      32.179  17.448 -24.801  0.00  0.00    -0.058 NA
ENDBRANCH  12  13
ENDBRANCH  11  12
ENDBRANCH   1  11
TORSDOF 3
ENDMDL
MODEL 4
REMARK VINA RESULT:      -2.3      0.843      1.635
REMARK  3 active torsions:
REMARK  status: ('A' for Active; 'I' for Inactive)
REMARK    1  A    between atoms: C_7  and  C_1 
REMARK    2  A    between atoms: N_9  and  C_7 
REMARK    3  A    between atoms: C_8  and  N_9 
ROOT
ATOM      1  C   UNL d   1      33.223  19.609 -22.637  0.00  0.00     0.146 A 
ATOM      2  C   UNL d   1      33.222  18.916 -22.183  0.00  0.00     0.304 A 
ATOM      3  C   UNL d   1      33.205  19.533 -23.485  0.00  0.00     0.304 A 
ATOM      4  O   UNL d   1      33.187  18.808 -23.829  0.00  0.00    -0.277 OA
ATOM      5  O   UNL d   1      33.204  18.180 -22.560  0.00  0.00    -0.277 OA
ATOM      6  C   UNL d   1      33.186  18.102 -23.351  0.00  0.00     0.203 A 
ATOM      7  O   UNL d   1      33.205  20.233 -23.953  0.00  0.00    -0.259 OA
ATOM      8  O   UNL d   1      33.241  18.982 -21.315  0.00  0.00    -0.259 OA
ATOM      9  C   UNL d   1      33.176  17.299 -23.291  0.00  0.00     0.062 C 
ATOM     10  C   UNL d   1      33.166  17.651 -24.033  0.00  0.00     0.062 C 
ENDROOT
BRANCH   1  11
ATOM     11  C   UNL d   1      33.241  20.355 -22.284  0.00  0.00     0.129 C 
BRANCH  11  12
ATOM     12  N   UNL d   1      32.543  20.727 -22.103  0.00  0.00    -0.057 NA
BRANCH  12  13
ATOM     13  C   UNL d   1      32.561  21.458 -21.702  0.00  0.00     0.750 A 
ATOM     14  N   UNL d   1      32.087  21.576 -21.013  0.00  0.00    -0.058 NA
ATOM     15  C   UNL d   1      32.125  22.316 -20.633  0.00  0.00     0.120 A 
ATOM     16  C   UNL d   1      32.596  22.915 -20.901  0.00  0.00     0.043 A 
ATOM     17  C   UNL d   1      33.055  22.789 -21.575  0.00  0.00     0.120 A 
ATOM     18  N   UNL d   1      33.037  22.077 -21.966  0.00  0.00    -0.058 NA
ENDBRANCH  12  13
ENDBRANCH  11  12
ENDBRANCH   1  11
TORSDOF 3
ENDMDL
MODEL 5
REMARK VINA RESULT:      -2.2      4.259      6.001
REMARK  3 active torsions:
REMARK  status: ('A' for Active; 'I' for Inactive)
REMARK    1  A    between atoms: C_7  and  C_1 
REMARK    2  A    between atoms: N_9  and  C_7 
REMARK    3  A    between atoms: C_8  and  N_9 
ROOT
ATOM      1  C   UNL d   1      31.265  17.051 -24.105  0.00  0.00     0.146 A 
ATOM      2  C   UNL d   1      31.414  17.798 -24.431  0.00  0.00     0.304 A 
ATOM      3  C   UNL d   1      31.802  16.757 -23.513  0.00  0.00     0.304 A 
ATOM      4  O   UNL d   1      32.433  17.196 -23.281  0.00  0.00    -0.277 OA
ATOM      5  O   UNL d   1      32.071  18.233 -24.176  0.00  0.00    -0.277 OA
ATOM      6  C   UNL d   1      32.576  17.964 -23.623  0.00  0.00     0.203 A 
ATOM      7  O   UNL d   1      31.657  15.999 -23.178  0.00  0.00    -0.259 OA
ATOM      8  O   UNL d   1      30.872  18.108 -25.037  0.00  0.00    -0.259 OA
ATOM      9  C   UNL d   1      33.018  18.634 -23.674  0.00  0.00     0.062 C 
ATOM     10  C   UNL d   1      33.239  18.041 -23.152  0.00  0.00     0.062 C 
ENDROOT
BRANCH   1  11
ATOM     11  C   UNL d   1      30.617  16.600 -24.344  0.00  0.00     0.129 C 
BRANCH  11  12
ATOM     12  N   UNL d   1      29.877  16.933 -24.342  0.00  0.00    -0.057 NA
BRANCH  12  13
ATOM     13  C   UNL d   1      29.205  16.438 -24.338  0.00  0.00     0.750 A 
ATOM     14  N   UNL d   1      28.698  16.416 -23.663  0.00  0.00    -0.058 NA
ATOM     15  C   UNL d   1      28.035  15.913 -23.688  0.00  0.00     0.120 A 
ATOM     16  C   UNL d   1      27.866  15.453 -24.329  0.00  0.00     0.043 A 
ATOM     17  C   UNL d   1      28.368  15.482 -24.983  0.00  0.00     0.120 A 
ATOM     18  N   UNL d   1      29.023  15.963 -24.987  0.00  0.00    -0.058 NA
ENDBRANCH  12  13
ENDBRANCH  11  12
ENDBRANCH   1  11
TORSDOF 3
ENDMDL
MODEL 6
REMARK VINA RESULT:      -2.0      1.328      1.992
REMARK  3 active torsions:
REMARK  status: ('A' for Active; 'I' for Inactive)
REMARK    1  A    between atoms: C_7  and  C_1 
REMARK    2  A    between atoms: N_9  and  C_7 
REMARK    3  A    between atoms: C_8  and  N_9 
ROOT
ATOM      1  C   UNL d   1      33.082  18.945 -23.316  0.00  0.00     0.146 A 
ATOM      2  C   UNL d   1      32.945  18.993 -24.132  0.00  0.00     0.304 A 
ATOM      3  C   UNL d   1      33.101  18.174 -22.956  0.00  0.00     0.304 A 
ATOM      4  O   UNL d   1      32.988  17.514 -23.401  0.00  0.00    -0.277 OA
ATOM      5  O   UNL d   1      32.830  18.300 -24.569  0.00  0.00    -0.277 OA
ATOM      6  C   UNL d   1      32.847  17.576 -24.239  0.00  0.00     0.203 A 
ATOM      7  O   UNL d   1      33.241  18.118 -22.129  0.00  0.00    -0.259 OA
ATOM      8  O   UNL d   1      32.923  19.777 -24.509  0.00  0.00    -0.259 OA
ATOM      9  C   UNL d   1      32.704  17.228 -24.951  0.00  0.00     0.062 C 
ATOM     10  C   UNL d   1      32.794  16.761 -24.281  0.00  0.00     0.062 C 
ENDROOT
BRANCH   1  11
ATOM     11  C   UNL d   1      33.199  19.623 -22.860  0.00  0.00     0.129 C 
BRANCH  11  12
ATOM     12  N   UNL d   1      32.563  19.974 -22.497  0.00  0.00    -0.057 NA
BRANCH  12  13
ATOM     13  C   UNL d   1      32.681  20.660 -22.037  0.00  0.00     0.750 A 
ATOM     14  N   UNL d   1      33.141  21.300 -22.339  0.00  0.00    -0.058 NA
ATOM     15  C   UNL d   1      33.241  21.972 -21.858  0.00  0.00     0.120 A 
ATOM     16  C   UNL d   1      32.916  22.027 -21.121  0.00  0.00     0.043 A 
ATOM     17  C   UNL d   1      32.468  21.396 -20.835  0.00  0.00     0.120 A 
ATOM     18  N   UNL d   1      32.353  20.727 -21.283  0.00  0.00    -0.058 NA
ENDBRANCH  12  13
ENDBRANCH  11  12
ENDBRANCH   1  11
TORSDOF 3
ENDMDL
MODEL 7
REMARK VINA RESULT:      -1.9      2.193      4.433
REMARK  3 active torsions:
REMARK  status: ('A' for Active; 'I' for Inactive)
REMARK    1  A    between atoms: C_7  and  C_1 
REMARK    2  A    between atoms: N_9  and  C_7 
REMARK    3  A    between atoms: C_8  and  N_9 
ROOT
ATOM      1  C   UNL d   1      33.229  19.646 -23.063  0.00  0.00     0.146 A 
ATOM      2  C   UNL d   1      33.232  20.316 -23.551  0.00  0.00     0.304 A 
ATOM      3  C   UNL d   1      33.230  19.765 -22.219  0.00  0.00     0.304 A 
ATOM      4  O   UNL d   1      33.234  20.507 -21.912  0.00  0.00    -0.277 OA
ATOM      5  O   UNL d   1      33.236  21.070 -23.212  0.00  0.00    -0.277 OA
ATOM      6  C   UNL d   1      33.237  21.188 -22.425  0.00  0.00     0.203 A 
ATOM      7  O   UNL d   1      33.227  19.090 -21.717  0.00  0.00    -0.259 OA
ATOM      8  O   UNL d   1      33.231  20.206 -24.415  0.00  0.00    -0.259 OA
ATOM      9  C   UNL d   1      33.241  21.987 -22.525  0.00  0.00     0.062 C 
ATOM     10  C   UNL d   1      33.240  21.673 -21.767  0.00  0.00     0.062 C 
ENDROOT
BRANCH   1  11
ATOM     11  C   UNL d   1      33.225  18.884 -23.378  0.00  0.00     0.129 C 
BRANCH  11  12
ATOM     12  N   UNL d   1      32.641  18.365 -23.159  0.00  0.00    -0.057 NA
BRANCH  12  13
ATOM     13  C   UNL d   1      32.528  17.665 -23.599  0.00  0.00     0.750 A 
ATOM     14  N   UNL d   1      31.757  17.453 -23.869  0.00  0.00    -0.058 NA
ATOM     15  C   UNL d   1      31.675  16.749 -24.306  0.00  0.00     0.120 A 
ATOM     16  C   UNL d   1      32.303  16.271 -24.476  0.00  0.00     0.043 A 
ATOM     17  C   UNL d   1      33.052  16.487 -24.207  0.00  0.00     0.120 A 
ATOM     18  N   UNL d   1      33.162  17.169 -23.778  0.00  0.00    -0.058 NA
ENDBRANCH  12  13
ENDBRANCH  11  12
ENDBRANCH   1  11
TORSDOF 3
ENDMDL
MODEL 8
REMARK VINA RESULT:      -1.4      1.940      2.827
REMARK  3 active torsions:
REMARK  status: ('A' for Active; 'I' for Inactive)
REMARK    1  A    between atoms: C_7  and  C_1 
REMARK    2  A    between atoms: N_9  and  C_7 
REMARK    3  A    between atoms: C_8  and  N_9 
ROOT
ATOM      1  C   UNL d   1      33.118  22.308 -20.664  0.00  0.00     0.146 A 
ATOM      2  C   UNL d   1      33.139  22.854 -21.286  0.00  0.00     0.304 A 
ATOM      3  C   UNL d   1      33.018  21.484 -20.857  0.00  0.00     0.304 A 
ATOM      4  O   UNL d   1      32.948  21.250 -21.622  0.00  0.00    -0.277 OA
ATOM      5  O   UNL d   1      33.065  22.590 -22.067  0.00  0.00    -0.277 OA
ATOM      6  C   UNL d   1      32.972  21.822 -22.253  0.00  0.00     0.203 A 
ATOM      7  O   UNL d   1      32.996  20.923 -20.230  0.00  0.00    -0.259 OA
ATOM      8  O   UNL d   1      33.241  23.699 -21.100  0.00  0.00    -0.259 OA
ATOM      9  C   UNL d   1      32.944  21.997 -23.039  0.00  0.00     0.062 C 
ATOM     10  C   UNL d   1      32.875  21.216 -22.794  0.00  0.00     0.062 C 
ENDROOT
BRANCH   1  11
ATOM     11  C   UNL d   1      33.190  22.548 -19.878  0.00  0.00     0.129 C 
BRANCH  11  12
ATOM     12  N   UNL d   1      32.522  22.723 -19.451  0.00  0.00    -0.057 NA
BRANCH  12  13
ATOM     13  C   UNL d   1      32.591  22.918 -18.643  0.00  0.00     0.750 A 
ATOM     14  N   UNL d   1      33.195  22.565 -18.171  0.00  0.00    -0.058 NA
ATOM     15  C   UNL d   1      33.240  22.778 -17.368  0.00  0.00     0.120 A 
ATOM     16  C   UNL d   1      32.729  23.306 -17.032  0.00  0.00     0.043 A 
ATOM     17  C   UNL d   1      32.143  23.646 -17.502  0.00  0.00     0.120 A 
ATOM     18  N   UNL d   1      32.075  23.456 -18.290  0.00  0.00    -0.058 NA
ENDBRANCH  12  13
ENDBRANCH  11  12
ENDBRANCH   1  11
TORSDOF 3
ENDMDL
