MODEL 1
REMARK VINA RESULT:      -8.7      0.000      0.000
REMARK  6 active torsions:
REMARK  status: ('A' for Active; 'I' for Inactive)
REMARK    1  A    between atoms: C_9  and  N_1 
REMARK    2  A    between atoms: C_8  and  C_3 
REMARK       I    between atoms: N_12  and  C_8 
REMARK    3  A    between atoms: C_17  and  C_9 
REMARK    4  A    between atoms: C_23  and  N_12 
REMARK    5  A    between atoms: C_13  and  C_23 
REMARK    6  A    between atoms: C_20  and  C_17 
ROOT
ATOM      1  N   UNL d   1      51.902  33.017  53.418  0.00  0.00    -0.273 N 
ATOM      2  C   UNL d   1      51.936  32.248  53.136  0.00  0.00     0.177 A 
ATOM      3  C   UNL d   1      52.680  31.938  53.322  0.00  0.00     0.115 A 
ATOM      4  C   UNL d   1      52.623  33.195  53.783  0.00  0.00     0.167 A 
ATOM      5  C   UNL d   1      53.104  32.527  53.724  0.00  0.00     0.123 A 
ATOM      6  N   UNL d   1      52.901  33.872  54.159  0.00  0.00    -0.225 NA
ATOM      7  N   UNL d   1      53.864  32.536  54.040  0.00  0.00    -0.241 NA
ATOM      8  C   UNL d   1      53.661  33.882  54.475  0.00  0.00     0.101 A 
ATOM      9  C   UNL d   1      54.142  33.214  54.416  0.00  0.00     0.099 A 
ATOM     10  N   UNL d   1      51.333  31.854  52.735  0.00  0.00    -0.128 N 
ATOM     11  C   UNL d   1      53.940  34.560  54.851  0.00  0.00     0.021 A 
ATOM     12  C   UNL d   1      54.903  33.224  54.733  0.00  0.00     0.021 A 
ATOM     13  C   UNL d   1      54.704  34.571  55.170  0.00  0.00     0.002 A 
ATOM     14  C   UNL d   1      55.185  33.904  55.111  0.00  0.00     0.002 A 
ENDROOT
BRANCH   1  15
ATOM     15  C   UNL d   1      51.260  33.534  53.353  0.00  0.00     0.083 C 
BRANCH  15  16
ATOM     16  C   UNL d   1      51.099  33.901  52.630  0.00  0.00     0.021 C 
BRANCH  16  17
ATOM     17  C   UNL d   1      50.394  34.318  52.538  0.00  0.00     0.029 A 
ATOM     18  C   UNL d   1      50.112  34.468  51.784  0.00  0.00     0.140 A 
ATOM     19  F   UNL d   1      50.654  34.134  51.248  0.00  0.00    -0.204 F 
ATOM     20  C   UNL d   1      49.417  34.880  51.681  0.00  0.00     0.030 A 
ATOM     21  C   UNL d   1      48.995  35.146  52.346  0.00  0.00     0.002 A 
ATOM     22  C   UNL d   1      49.284  34.991  53.099  0.00  0.00     0.000 A 
ATOM     23  C   UNL d   1      49.982  34.578  53.193  0.00  0.00     0.002 A 
ENDBRANCH  16  17
ENDBRANCH  15  16
ENDBRANCH   1  15
BRANCH   3  24
ATOM     24  C   UNL d   1      52.957  31.180  53.144  0.00  0.00     0.284 C 
ATOM     25  N   UNL d   1      52.931  30.594  53.724  0.00  0.00    -0.204 NA
ATOM     26  O   UNL d   1      53.257  31.010  52.396  0.00  0.00    -0.265 OA
BRANCH  25  27
ATOM     27  C   UNL d   1      53.211  29.827  53.546  0.00  0.00     0.127 C 
BRANCH  27  28
ATOM     28  C   UNL d   1      53.300  29.274  54.143  0.00  0.00     0.119 A 
ATOM     29  O   UNL d   1      52.798  29.178  54.790  0.00  0.00    -0.304 OA
ATOM     30  C   UNL d   1      53.094  28.560  55.249  0.00  0.00     0.123 A 
ATOM     31  C   UNL d   1      53.784  28.280  54.874  0.00  0.00     0.029 A 
ATOM     32  C   UNL d   1      53.904  28.716  54.204  0.00  0.00     0.028 A 
ENDBRANCH  27  28
ENDBRANCH  25  27
ENDBRANCH   3  24
TORSDOF 6
ENDMDL
MODEL 2
REMARK VINA RESULT:      -7.4      1.807      4.898
REMARK  6 active torsions:
REMARK  status: ('A' for Active; 'I' for Inactive)
REMARK    1  A    between atoms: C_9  and  N_1 
REMARK    2  A    between atoms: C_8  and  C_3 
REMARK       I    between atoms: N_12  and  C_8 
REMARK    3  A    between atoms: C_17  and  C_9 
REMARK    4  A    between atoms: C_23  and  N_12 
REMARK    5  A    between atoms: C_13  and  C_23 
REMARK    6  A    between atoms: C_20  and  C_17 
ROOT
ATOM      1  N   UNL d   1      51.897  32.682  53.439  0.00  0.00    -0.273 N 
ATOM      2  C   UNL d   1      51.288  32.910  52.940  0.00  0.00     0.177 A 
ATOM      3  C   UNL d   1      51.284  33.736  52.899  0.00  0.00     0.115 A 
ATOM      4  C   UNL d   1      52.280  33.362  53.713  0.00  0.00     0.167 A 
ATOM      5  C   UNL d   1      51.900  34.014  53.379  0.00  0.00     0.123 A 
ATOM      6  N   UNL d   1      52.919  33.471  54.220  0.00  0.00    -0.225 NA
ATOM      7  N   UNL d   1      52.160  34.776  53.552  0.00  0.00    -0.241 NA
ATOM      8  C   UNL d   1      53.179  34.233  54.393  0.00  0.00     0.101 A 
ATOM      9  C   UNL d   1      52.800  34.885  54.059  0.00  0.00     0.099 A 
ATOM     10  N   UNL d   1      50.769  32.402  52.549  0.00  0.00    -0.128 N 
ATOM     11  C   UNL d   1      53.819  34.343  54.900  0.00  0.00     0.021 A 
ATOM     12  C   UNL d   1      53.060  35.648  54.232  0.00  0.00     0.021 A 
ATOM     13  C   UNL d   1      54.082  35.108  55.075  0.00  0.00     0.002 A 
ATOM     14  C   UNL d   1      53.702  35.760  54.741  0.00  0.00     0.002 A 
ENDROOT
BRANCH   1  15
ATOM     15  C   UNL d   1      52.102  31.907  53.639  0.00  0.00     0.083 C 
BRANCH  15  16
ATOM     16  C   UNL d   1      52.609  31.476  53.148  0.00  0.00     0.021 C 
BRANCH  16  17
ATOM     17  C   UNL d   1      52.872  30.733  53.392  0.00  0.00     0.029 A 
ATOM     18  C   UNL d   1      53.067  30.171  52.830  0.00  0.00     0.140 A 
ATOM     19  F   UNL d   1      52.941  30.518  52.083  0.00  0.00    -0.204 F 
ATOM     20  C   UNL d   1      53.328  29.435  53.060  0.00  0.00     0.030 A 
ATOM     21  C   UNL d   1      53.395  29.257  53.870  0.00  0.00     0.002 A 
ATOM     22  C   UNL d   1      53.197  29.826  54.427  0.00  0.00     0.000 A 
ATOM     23  C   UNL d   1      52.936  30.562  54.188  0.00  0.00     0.002 A 
ENDBRANCH  16  17
ENDBRANCH  15  16
ENDBRANCH   1  15
BRANCH   3  24
ATOM     24  C   UNL d   1      50.764  34.206  52.461  0.00  0.00     0.284 C 
ATOM     25  N   UNL d   1      50.075  34.486  52.818  0.00  0.00    -0.204 NA
ATOM     26  O   UNL d   1      50.930  34.393  51.676  0.00  0.00    -0.265 OA
BRANCH  25  27
ATOM     27  C   UNL d   1      49.548  34.961  52.376  0.00  0.00     0.127 C 
BRANCH  27  28
ATOM     28  C   UNL d   1      48.942  35.362  52.754  0.00  0.00     0.119 A 
ATOM     29  O   UNL d   1      48.988  35.713  53.498  0.00  0.00    -0.304 OA
ATOM     30  C   UNL d   1      48.255  36.054  53.661  0.00  0.00     0.123 A 
ATOM     31  C   UNL d   1      47.760  35.906  53.006  0.00  0.00     0.029 A 
ATOM     32  C   UNL d   1      48.183  35.486  52.459  0.00  0.00     0.028 A 
ENDBRANCH  27  28
ENDBRANCH  25  27
ENDBRANCH   3  24
TORSDOF 6
ENDMDL
