MODEL 1
REMARK VINA RESULT:      -9.1      0.000      0.000
REMARK  6 active torsions:
REMARK  status: ('A' for Active; 'I' for Inactive)
REMARK    1  A    between atoms: C_2  and  C_1 
REMARK       I    between atoms: N_5  and  C_2 
REMARK    2  A    between atoms: C_13  and  N_5 
REMARK    3  A    between atoms: C_14  and  C_6 
REMARK       I    between atoms: C_8  and  N_9 
REMARK    4  A    between atoms: N_9  and  C_15 
REMARK    5  A    between atoms: S_11  and  C_14 
REMARK    6  A    between atoms: C_16  and  S_11 
ROOT
ATOM      1  C   UNL d   1      54.152  33.665  54.572  0.00  0.00     0.158 A 
ATOM      2  O   UNL d   1      53.817  32.950  54.811  0.00  0.00    -0.302 OA
ATOM      3  C   UNL d   1      54.570  33.519  53.872  0.00  0.00     0.032 A 
ATOM      4  C   UNL d   1      54.023  32.372  54.272  0.00  0.00     0.107 A 
ATOM      5  C   UNL d   1      54.491  32.719  53.687  0.00  0.00     0.027 A 
ENDROOT
BRANCH   1   6
ATOM      6  C   UNL d   1      54.087  34.395  54.952  0.00  0.00     0.302 C 
ATOM      7  N   UNL d   1      53.476  34.912  54.760  0.00  0.00    -0.206 NA
ATOM      8  O   UNL d   1      54.638  34.600  55.525  0.00  0.00    -0.263 OA
BRANCH   7   9
ATOM      9  C   UNL d   1      52.924  34.691  54.178  0.00  0.00     0.085 A 
ATOM     10  C   UNL d   1      52.254  34.254  54.383  0.00  0.00     0.021 A 
ATOM     11  C   UNL d   1      51.715  34.042  53.796  0.00  0.00     0.021 A 
ATOM     12  C   UNL d   1      51.845  34.264  53.013  0.00  0.00     0.085 A 
ATOM     13  C   UNL d   1      52.520  34.702  52.815  0.00  0.00     0.021 A 
ATOM     14  C   UNL d   1      53.062  34.918  53.395  0.00  0.00     0.021 A 
BRANCH  12  15
ATOM     15  N   UNL d   1      51.301  34.050  52.425  0.00  0.00    -0.208 NA
ATOM     16  C   UNL d   1      50.534  34.353  52.450  0.00  0.00     0.279 C 
ATOM     17  O   UNL d   1      50.304  34.864  53.050  0.00  0.00    -0.265 OA
ATOM     18  C   UNL d   1      49.997  34.139  51.866  0.00  0.00     0.068 C 
ENDBRANCH  12  15
ENDBRANCH   7   9
ENDBRANCH   1   6
BRANCH   4  19
ATOM     19  C   UNL d   1      53.806  31.576  54.299  0.00  0.00     0.060 C 
BRANCH  19  20
ATOM     20  S   UNL d   1      53.789  31.131  53.607  0.00  0.00    -0.084 SA
BRANCH  20  21
ATOM     21  C   UNL d   1      53.381  30.420  53.576  0.00  0.00     0.029 A 
ATOM     22  C   UNL d   1      52.766  30.333  53.032  0.00  0.00     0.006 A 
ATOM     23  C   UNL d   1      52.358  29.622  53.002  0.00  0.00     0.001 A 
ATOM     24  C   UNL d   1      52.556  29.003  53.506  0.00  0.00     0.000 A 
ATOM     25  C   UNL d   1      53.173  29.093  54.051  0.00  0.00     0.001 A 
ATOM     26  C   UNL d   1      53.582  29.804  54.082  0.00  0.00     0.006 A 
ENDBRANCH  20  21
ENDBRANCH  19  20
ENDBRANCH   4  19
TORSDOF 6
ENDMDL
MODEL 2
REMARK VINA RESULT:      -8.5      1.494      3.966
REMARK  6 active torsions:
REMARK  status: ('A' for Active; 'I' for Inactive)
REMARK    1  A    between atoms: C_2  and  C_1 
REMARK       I    between atoms: N_5  and  C_2 
REMARK    2  A    between atoms: C_13  and  N_5 
REMARK    3  A    between atoms: C_14  and  C_6 
REMARK       I    between atoms: C_8  and  N_9 
REMARK    4  A    between atoms: N_9  and  C_15 
REMARK    5  A    between atoms: S_11  and  C_14 
REMARK    6  A    between atoms: C_16  and  S_11 
ROOT
ATOM      1  C   UNL d   1      53.877  34.163  54.551  0.00  0.00     0.158 A 
ATOM      2  O   UNL d   1      53.518  34.362  53.836  0.00  0.00    -0.302 OA
ATOM      3  C   UNL d   1      53.284  34.145  55.129  0.00  0.00     0.032 A 
ATOM      4  C   UNL d   1      52.718  34.464  53.966  0.00  0.00     0.107 A 
ATOM      5  C   UNL d   1      52.566  34.331  54.767  0.00  0.00     0.027 A 
ENDROOT
BRANCH   1   6
ATOM      6  C   UNL d   1      54.678  34.010  54.677  0.00  0.00     0.302 C 
ATOM      7  N   UNL d   1      54.986  33.260  54.537  0.00  0.00    -0.206 NA
ATOM      8  O   UNL d   1      55.167  34.614  54.943  0.00  0.00    -0.263 OA
BRANCH   7   9
ATOM      9  C   UNL d   1      54.480  32.656  54.268  0.00  0.00     0.085 A 
ATOM     10  C   UNL d   1      54.021  32.227  54.803  0.00  0.00     0.021 A 
ATOM     11  C   UNL d   1      53.524  31.632  54.522  0.00  0.00     0.021 A 
ATOM     12  C   UNL d   1      53.487  31.469  53.716  0.00  0.00     0.085 A 
ATOM     13  C   UNL d   1      53.950  31.903  53.185  0.00  0.00     0.021 A 
ATOM     14  C   UNL d   1      54.449  32.499  53.457  0.00  0.00     0.021 A 
BRANCH  12  15
ATOM     15  N   UNL d   1      52.986  30.869  53.436  0.00  0.00    -0.208 NA
ATOM     16  C   UNL d   1      53.244  30.085  53.446  0.00  0.00     0.279 C 
ATOM     17  O   UNL d   1      53.991  29.894  53.730  0.00  0.00    -0.265 OA
ATOM     18  C   UNL d   1      52.747  29.493  53.169  0.00  0.00     0.068 C 
ENDBRANCH  12  15
ENDBRANCH   7   9
ENDBRANCH   1   6
BRANCH   4  19
ATOM     19  C   UNL d   1      52.150  34.666  53.401  0.00  0.00     0.060 C 
BRANCH  19  20
ATOM     20  S   UNL d   1      51.392  34.349  53.449  0.00  0.00    -0.084 SA
BRANCH  20  21
ATOM     21  C   UNL d   1      50.887  34.376  52.803  0.00  0.00     0.029 A 
ATOM     22  C   UNL d   1      50.104  34.612  52.916  0.00  0.00     0.006 A 
ATOM     23  C   UNL d   1      49.598  34.639  52.270  0.00  0.00     0.001 A 
ATOM     24  C   UNL d   1      49.865  34.434  51.520  0.00  0.00     0.000 A 
ATOM     25  C   UNL d   1      50.652  34.198  51.409  0.00  0.00     0.001 A 
ATOM     26  C   UNL d   1      51.157  34.171  52.055  0.00  0.00     0.006 A 
ENDBRANCH  20  21
ENDBRANCH  19  20
ENDBRANCH   4  19
TORSDOF 6
ENDMDL
MODEL 3
REMARK VINA RESULT:      -7.8      1.010      2.927
REMARK  6 active torsions:
REMARK  status: ('A' for Active; 'I' for Inactive)
REMARK    1  A    between atoms: C_2  and  C_1 
REMARK       I    between atoms: N_5  and  C_2 
REMARK    2  A    between atoms: C_13  and  N_5 
REMARK    3  A    between atoms: C_14  and  C_6 
REMARK       I    between atoms: C_8  and  N_9 
REMARK    4  A    between atoms: N_9  and  C_15 
REMARK    5  A    between atoms: S_11  and  C_14 
REMARK    6  A    between atoms: C_16  and  S_11 
ROOT
ATOM      1  C   UNL d   1      51.441  33.768  52.943  0.00  0.00     0.158 A 
ATOM      2  O   UNL d   1      51.395  33.045  53.335  0.00  0.00    -0.302 OA
ATOM      3  C   UNL d   1      51.965  33.673  52.309  0.00  0.00     0.032 A 
ATOM      4  C   UNL d   1      51.881  32.510  52.953  0.00  0.00     0.107 A 
ATOM      5  C   UNL d   1      52.237  32.895  52.315  0.00  0.00     0.027 A 
ENDROOT
BRANCH   1   6
ATOM      6  C   UNL d   1      51.041  34.464  53.139  0.00  0.00     0.302 C 
ATOM      7  N   UNL d   1      51.409  35.040  53.598  0.00  0.00    -0.206 NA
ATOM      8  O   UNL d   1      50.273  34.576  52.872  0.00  0.00    -0.263 OA
BRANCH   7   9
ATOM      9  C   UNL d   1      52.188  34.914  53.862  0.00  0.00     0.085 A 
ATOM     10  C   UNL d   1      52.827  35.049  53.356  0.00  0.00     0.021 A 
ATOM     11  C   UNL d   1      53.594  34.920  53.631  0.00  0.00     0.021 A 
ATOM     12  C   UNL d   1      53.719  34.659  54.402  0.00  0.00     0.085 A 
ATOM     13  C   UNL d   1      53.074  34.526  54.904  0.00  0.00     0.021 A 
ATOM     14  C   UNL d   1      52.306  34.652  54.637  0.00  0.00     0.021 A 
BRANCH  12  15
ATOM     15  N   UNL d   1      54.492  34.530  54.676  0.00  0.00    -0.208 NA
ATOM     16  C   UNL d   1      54.662  33.848  55.108  0.00  0.00     0.279 C 
ATOM     17  O   UNL d   1      54.075  33.297  55.268  0.00  0.00    -0.265 OA
ATOM     18  C   UNL d   1      55.427  33.722  55.378  0.00  0.00     0.068 C 
ENDBRANCH  12  15
ENDBRANCH   7   9
ENDBRANCH   1   6
BRANCH   4  19
ATOM     19  C   UNL d   1      52.001  31.720  53.161  0.00  0.00     0.060 C 
BRANCH  19  20
ATOM     20  S   UNL d   1      52.670  31.323  52.893  0.00  0.00    -0.084 SA
BRANCH  20  21
ATOM     21  C   UNL d   1      52.906  30.619  53.243  0.00  0.00     0.029 A 
ATOM     22  C   UNL d   1      53.648  30.580  53.604  0.00  0.00     0.006 A 
ATOM     23  C   UNL d   1      53.885  29.877  53.955  0.00  0.00     0.001 A 
ATOM     24  C   UNL d   1      53.391  29.219  53.948  0.00  0.00     0.000 A 
ATOM     25  C   UNL d   1      52.647  29.261  53.586  0.00  0.00     0.001 A 
ATOM     26  C   UNL d   1      52.411  29.964  53.235  0.00  0.00     0.006 A 
ENDBRANCH  20  21
ENDBRANCH  19  20
ENDBRANCH   4  19
TORSDOF 6
ENDMDL
