MODEL 1
REMARK VINA RESULT:      41.9      0.000      0.000
REMARK  4 active torsions:
REMARK  status: ('A' for Active; 'I' for Inactive)
REMARK    1  A    between atoms: C_6  and  C_2 
REMARK    2  A    between atoms: C_7  and  C_5 
REMARK    3  A    between atoms: O_8  and  C_7 
REMARK    4  A    between atoms: C_9  and  O_8 
ROOT
ATOM      1  N   UNL d   1      58.853  49.485  49.226  0.00  0.00    -0.121 NA
ATOM      2  C   UNL d   1      58.490  49.602  49.951  0.00  0.00     0.204 A 
ATOM      3  O   UNL d   1      59.087  49.702  50.520  0.00  0.00    -0.267 OA
ATOM      4  N   UNL d   1      59.670  49.510  49.336  0.00  0.00    -0.119 NA
ATOM      5  C   UNL d   1      59.816  49.644  50.137  0.00  0.00     0.230 A 
ENDROOT
BRANCH   5   6
ATOM      6  C   UNL d   1      60.559  49.708  50.487  0.00  0.00     0.169 C 
BRANCH   6   7
ATOM      7  O   UNL d   1      60.873  49.075  50.920  0.00  0.00    -0.301 OA
BRANCH   7   8
ATOM      8  C   UNL d   1      61.386  49.228  51.552  0.00  0.00     0.100 A 
ATOM      9  C   UNL d   1      61.152  49.059  52.325  0.00  0.00     0.025 A 
ATOM     10  C   UNL d   1      61.666  49.213  52.949  0.00  0.00     0.002 A 
ATOM     11  C   UNL d   1      62.412  49.534  52.804  0.00  0.00     0.000 A 
ATOM     12  C   UNL d   1      62.643  49.701  52.027  0.00  0.00     0.002 A 
ATOM     13  C   UNL d   1      62.135  49.551  51.394  0.00  0.00     0.025 A 
ENDBRANCH   7   8
ENDBRANCH   6   7
ENDBRANCH   5   6
BRANCH   2  14
ATOM     14  C   UNL d   1      57.678  49.620  50.096  0.00  0.00     0.043 A 
ATOM     15  C   UNL d   1      57.396  49.621  50.874  0.00  0.00     0.004 A 
ATOM     16  C   UNL d   1      56.584  49.638  51.019  0.00  0.00     0.000 A 
ATOM     17  C   UNL d   1      56.054  49.655  50.387  0.00  0.00     0.000 A 
ATOM     18  C   UNL d   1      56.336  49.654  49.610  0.00  0.00     0.000 A 
ATOM     19  C   UNL d   1      57.148  49.636  49.465  0.00  0.00     0.004 A 
ENDBRANCH   2  14
TORSDOF 4
ENDMDL
MODEL 2
REMARK VINA RESULT:      43.3      1.090      1.603
REMARK  4 active torsions:
REMARK  status: ('A' for Active; 'I' for Inactive)
REMARK    1  A    between atoms: C_6  and  C_2 
REMARK    2  A    between atoms: C_7  and  C_5 
REMARK    3  A    between atoms: O_8  and  C_7 
REMARK    4  A    between atoms: C_9  and  O_8 
ROOT
ATOM      1  N   UNL d   1      58.763  49.699  49.393  0.00  0.00    -0.121 NA
ATOM      2  C   UNL d   1      58.442  49.645  50.145  0.00  0.00     0.204 A 
ATOM      3  O   UNL d   1      59.071  49.620  50.687  0.00  0.00    -0.267 OA
ATOM      4  N   UNL d   1      59.585  49.708  49.459  0.00  0.00    -0.119 NA
ATOM      5  C   UNL d   1      59.776  49.659  50.261  0.00  0.00     0.230 A 
ENDROOT
BRANCH   5   6
ATOM      6  C   UNL d   1      60.539  49.651  50.574  0.00  0.00     0.169 C 
BRANCH   6   7
ATOM      7  O   UNL d   1      61.123  49.172  50.235  0.00  0.00    -0.301 OA
BRANCH   7   8
ATOM      8  C   UNL d   1      61.268  48.420  50.550  0.00  0.00     0.100 A 
ATOM      9  C   UNL d   1      61.625  47.838  50.087  0.00  0.00     0.025 A 
ATOM     10  C   UNL d   1      61.765  47.093  50.406  0.00  0.00     0.002 A 
ATOM     11  C   UNL d   1      61.552  46.926  51.184  0.00  0.00     0.000 A 
ATOM     12  C   UNL d   1      61.194  47.512  51.646  0.00  0.00     0.002 A 
ATOM     13  C   UNL d   1      61.048  48.263  51.336  0.00  0.00     0.025 A 
ENDBRANCH   7   8
ENDBRANCH   6   7
ENDBRANCH   5   6
BRANCH   2  14
ATOM     14  C   UNL d   1      57.640  49.620  50.336  0.00  0.00     0.043 A 
ATOM     15  C   UNL d   1      57.076  49.507  49.741  0.00  0.00     0.004 A 
ATOM     16  C   UNL d   1      56.274  49.481  49.932  0.00  0.00     0.000 A 
ATOM     17  C   UNL d   1      56.035  49.569  50.717  0.00  0.00     0.000 A 
ATOM     18  C   UNL d   1      56.599  49.682  51.311  0.00  0.00     0.000 A 
ATOM     19  C   UNL d   1      57.401  49.707  51.121  0.00  0.00     0.004 A 
ENDBRANCH   2  14
TORSDOF 4
ENDMDL
