MODEL 1
REMARK VINA RESULT:      -4.0      0.000      0.000
REMARK  5 active torsions:
REMARK  status: ('A' for Active; 'I' for Inactive)
REMARK    1  A    between atoms: C_10  and  C_4 
REMARK    2  A    between atoms: N_11  and  C_7 
REMARK    3  A    between atoms: C_13  and  N_11 
REMARK    4  A    between atoms: C_15  and  C_13 
REMARK    5  A    between atoms: O_25  and  C_17 
ROOT
ATOM      1  C   UNL d   1     -39.416  15.205  19.659  0.00  0.00     0.186 A 
ATOM      2  N   UNL d   1     -38.856  15.571  20.164  0.00  0.00    -0.193 N 
ATOM      3  N   UNL d   1     -40.065  14.810  19.992  0.00  0.00    -0.206 NA
ATOM      4  C   UNL d   1     -39.169  15.336  18.879  0.00  0.00     0.140 A 
ATOM      5  N   UNL d   1     -38.272  15.922  19.689  0.00  0.00    -0.058 NA
ATOM      6  N   UNL d   1     -38.469  15.774  18.897  0.00  0.00    -0.127 NA
ATOM      7  C   UNL d   1     -40.165  14.772  20.808  0.00  0.00     0.166 A 
ATOM      8  C   UNL d   1     -39.605  15.138  21.300  0.00  0.00     0.054 A 
ATOM      9  C   UNL d   1     -38.957  15.534  20.981  0.00  0.00     0.089 A 
ATOM     10  C   UNL d   1     -39.706  15.101  22.116  0.00  0.00     0.005 A 
ATOM     11  C   UNL d   1     -38.407  15.893  21.478  0.00  0.00     0.019 A 
ATOM     12  C   UNL d   1     -39.156  15.460  22.614  0.00  0.00     0.000 A 
ATOM     13  C   UNL d   1     -38.507  15.856  22.295  0.00  0.00     0.002 A 
ENDROOT
BRANCH   7  14
ATOM     14  N   UNL d   1     -40.810  14.380  21.138  0.00  0.00    -0.225 NA
BRANCH  14  15
ATOM     15  C   UNL d   1     -41.412  14.094  20.647  0.00  0.00     0.101 C 
BRANCH  15  16
ATOM     16  C   UNL d   1     -42.067  13.708  20.967  0.00  0.00     0.019 A 
ATOM     17  C   UNL d   1     -42.756  14.129  21.128  0.00  0.00     0.004 A 
ATOM     18  C   UNL d   1     -43.411  13.743  21.448  0.00  0.00     0.024 A 
ATOM     19  C   UNL d   1     -43.371  12.925  21.607  0.00  0.00     0.094 A 
ATOM     20  C   UNL d   1     -42.672  12.511  21.442  0.00  0.00     0.024 A 
ATOM     21  C   UNL d   1     -42.023  12.907  21.122  0.00  0.00     0.004 A 
BRANCH  19  22
ATOM     22  O   UNL d   1     -44.024  12.536  21.927  0.00  0.00    -0.328 OA
ATOM     23  C   UNL d   1     -44.783  12.837  21.796  0.00  0.00     0.181 C 
ENDBRANCH  19  22
ENDBRANCH  15  16
ENDBRANCH  14  15
ENDBRANCH   7  14
BRANCH   4  24
ATOM     24  C   UNL d   1     -39.560  15.070  18.209  0.00  0.00     0.025 A 
ATOM     25  C   UNL d   1     -40.133  15.547  17.859  0.00  0.00     0.031 A 
ATOM     26  C   UNL d   1     -40.533  15.285  17.180  0.00  0.00     0.140 A 
ATOM     27  F   UNL d   1     -41.106  15.761  16.829  0.00  0.00    -0.204 F 
ATOM     28  C   UNL d   1     -40.352  14.545  16.861  0.00  0.00     0.030 A 
ATOM     29  C   UNL d   1     -39.771  14.070  17.222  0.00  0.00     0.002 A 
ATOM     30  C   UNL d   1     -39.380  14.334  17.891  0.00  0.00     0.002 A 
ENDBRANCH   4  24
TORSDOF 5
ENDMDL
MODEL 2
REMARK VINA RESULT:      -3.7      3.559      6.922
REMARK  5 active torsions:
REMARK  status: ('A' for Active; 'I' for Inactive)
REMARK    1  A    between atoms: C_10  and  C_4 
REMARK    2  A    between atoms: N_11  and  C_7 
REMARK    3  A    between atoms: C_13  and  N_11 
REMARK    4  A    between atoms: C_15  and  C_13 
REMARK    5  A    between atoms: O_25  and  C_17 
ROOT
ATOM      1  C   UNL d   1     -45.702  12.099  22.994  0.00  0.00     0.186 A 
ATOM      2  N   UNL d   1     -45.673  11.343  23.356  0.00  0.00    -0.193 N 
ATOM      3  N   UNL d   1     -45.024  12.396  22.622  0.00  0.00    -0.206 NA
ATOM      4  C   UNL d   1     -46.468  12.396  23.101  0.00  0.00     0.140 A 
ATOM      5  N   UNL d   1     -46.420  11.186  23.682  0.00  0.00    -0.058 NA
ATOM      6  N   UNL d   1     -46.907  11.838  23.523  0.00  0.00    -0.127 NA
ATOM      7  C   UNL d   1     -44.325  11.961  22.604  0.00  0.00     0.166 A 
ATOM      8  C   UNL d   1     -44.306  11.214  22.966  0.00  0.00     0.054 A 
ATOM      9  C   UNL d   1     -44.974  10.908  23.339  0.00  0.00     0.089 A 
ATOM     10  C   UNL d   1     -43.607  10.779  22.948  0.00  0.00     0.005 A 
ATOM     11  C   UNL d   1     -44.944  10.166  23.695  0.00  0.00     0.019 A 
ATOM     12  C   UNL d   1     -43.577  10.037  23.304  0.00  0.00     0.000 A 
ATOM     13  C   UNL d   1     -44.245   9.731  23.677  0.00  0.00     0.002 A 
ENDROOT
BRANCH   7  14
ATOM     14  N   UNL d   1     -43.650  12.257  22.234  0.00  0.00    -0.225 NA
BRANCH  14  15
ATOM     15  C   UNL d   1     -43.728  12.772  21.591  0.00  0.00     0.101 C 
BRANCH  15  16
ATOM     16  C   UNL d   1     -43.084  13.217  21.329  0.00  0.00     0.019 A 
ATOM     17  C   UNL d   1     -43.083  14.035  21.419  0.00  0.00     0.004 A 
ATOM     18  C   UNL d   1     -42.439  14.479  21.157  0.00  0.00     0.024 A 
ATOM     19  C   UNL d   1     -41.791  14.095  20.801  0.00  0.00     0.094 A 
ATOM     20  C   UNL d   1     -41.801  13.270  20.715  0.00  0.00     0.024 A 
ATOM     21  C   UNL d   1     -42.450  12.836  20.981  0.00  0.00     0.004 A 
BRANCH  19  22
ATOM     22  O   UNL d   1     -41.145  14.536  20.538  0.00  0.00    -0.328 OA
ATOM     23  C   UNL d   1     -40.502  14.660  21.044  0.00  0.00     0.181 C 
ENDBRANCH  19  22
ENDBRANCH  15  16
ENDBRANCH  14  15
ENDBRANCH   7  14
BRANCH   4  24
ATOM     24  C   UNL d   1     -46.735  13.123  22.832  0.00  0.00     0.025 A 
ATOM     25  C   UNL d   1     -47.292  13.151  22.227  0.00  0.00     0.031 A 
ATOM     26  C   UNL d   1     -47.567  13.884  21.948  0.00  0.00     0.140 A 
ATOM     27  F   UNL d   1     -48.125  13.912  21.343  0.00  0.00    -0.204 F 
ATOM     28  C   UNL d   1     -47.277  14.580  22.282  0.00  0.00     0.030 A 
ATOM     29  C   UNL d   1     -46.713  14.542  22.894  0.00  0.00     0.002 A 
ATOM     30  C   UNL d   1     -46.446  13.817  23.164  0.00  0.00     0.002 A 
ENDBRANCH   4  24
TORSDOF 5
ENDMDL
MODEL 3
REMARK VINA RESULT:      -1.7      4.612      8.246
REMARK  5 active torsions:
REMARK  status: ('A' for Active; 'I' for Inactive)
REMARK    1  A    between atoms: C_10  and  C_4 
REMARK    2  A    between atoms: N_11  and  C_7 
REMARK    3  A    between atoms: C_13  and  N_11 
REMARK    4  A    between atoms: C_15  and  C_13 
REMARK    5  A    between atoms: O_25  and  C_17 
ROOT
ATOM      1  C   UNL d   1     -47.889  12.817  23.010  0.00  0.00     0.186 A 
ATOM      2  N   UNL d   1     -47.987  12.022  23.256  0.00  0.00    -0.193 N 
ATOM      3  N   UNL d   1     -47.125  13.106  22.869  0.00  0.00    -0.206 NA
ATOM      4  C   UNL d   1     -48.644  13.157  22.960  0.00  0.00     0.140 A 
ATOM      5  N   UNL d   1     -48.800  11.882  23.355  0.00  0.00    -0.058 NA
ATOM      6  N   UNL d   1     -49.200  12.584  23.171  0.00  0.00    -0.127 NA
ATOM      7  C   UNL d   1     -46.465  12.625  22.968  0.00  0.00     0.166 A 
ATOM      8  C   UNL d   1     -46.572  11.839  23.212  0.00  0.00     0.054 A 
ATOM      9  C   UNL d   1     -47.326  11.540  23.355  0.00  0.00     0.089 A 
ATOM     10  C   UNL d   1     -45.911  11.357  23.311  0.00  0.00     0.005 A 
ATOM     11  C   UNL d   1     -47.422  10.759  23.597  0.00  0.00     0.019 A 
ATOM     12  C   UNL d   1     -46.007  10.576  23.553  0.00  0.00     0.000 A 
ATOM     13  C   UNL d   1     -46.761  10.277  23.696  0.00  0.00     0.002 A 
ENDROOT
BRANCH   7  14
ATOM     14  N   UNL d   1     -45.705  12.913  22.828  0.00  0.00    -0.225 NA
BRANCH  14  15
ATOM     15  C   UNL d   1     -45.505  13.193  22.075  0.00  0.00     0.101 C 
BRANCH  15  16
ATOM     16  C   UNL d   1     -44.716  13.227  21.836  0.00  0.00     0.019 A 
ATOM     17  C   UNL d   1     -44.379  12.594  21.433  0.00  0.00     0.004 A 
ATOM     18  C   UNL d   1     -43.590  12.628  21.194  0.00  0.00     0.024 A 
ATOM     19  C   UNL d   1     -43.138  13.308  21.363  0.00  0.00     0.094 A 
ATOM     20  C   UNL d   1     -43.486  13.941  21.769  0.00  0.00     0.024 A 
ATOM     21  C   UNL d   1     -44.276  13.896  22.003  0.00  0.00     0.004 A 
BRANCH  19  22
ATOM     22  O   UNL d   1     -42.348  13.345  21.125  0.00  0.00    -0.328 OA
ATOM     23  C   UNL d   1     -42.044  14.056  20.830  0.00  0.00     0.181 C 
ENDBRANCH  19  22
ENDBRANCH  15  16
ENDBRANCH  14  15
ENDBRANCH   7  14
BRANCH   4  24
ATOM     24  C   UNL d   1     -48.800  13.930  22.738  0.00  0.00     0.025 A 
ATOM     25  C   UNL d   1     -49.094  14.460  23.295  0.00  0.00     0.031 A 
ATOM     26  C   UNL d   1     -49.255  15.245  23.077  0.00  0.00     0.140 A 
ATOM     27  F   UNL d   1     -49.549  15.775  23.635  0.00  0.00    -0.204 F 
ATOM     28  C   UNL d   1     -49.117  15.488  22.300  0.00  0.00     0.030 A 
ATOM     29  C   UNL d   1     -48.819  14.945  21.744  0.00  0.00     0.002 A 
ATOM     30  C   UNL d   1     -48.663  14.172  21.965  0.00  0.00     0.002 A 
ENDBRANCH   4  24
TORSDOF 5
ENDMDL
MODEL 4
REMARK VINA RESULT:      -1.5      6.416      9.579
REMARK  5 active torsions:
REMARK  status: ('A' for Active; 'I' for Inactive)
REMARK    1  A    between atoms: C_10  and  C_4 
REMARK    2  A    between atoms: N_11  and  C_7 
REMARK    3  A    between atoms: C_13  and  N_11 
REMARK    4  A    between atoms: C_15  and  C_13 
REMARK    5  A    between atoms: O_25  and  C_17 
ROOT
ATOM      1  C   UNL d   1     -49.597  13.054  23.182  0.00  0.00     0.186 A 
ATOM      2  N   UNL d   1     -50.323  13.453  23.314  0.00  0.00    -0.193 N 
ATOM      3  N   UNL d   1     -48.902  13.497  23.095  0.00  0.00    -0.206 NA
ATOM      4  C   UNL d   1     -49.759  12.241  23.167  0.00  0.00     0.140 A 
ATOM      5  N   UNL d   1     -50.922  12.881  23.379  0.00  0.00    -0.058 NA
ATOM      6  N   UNL d   1     -50.569  12.136  23.288  0.00  0.00    -0.127 NA
ATOM      7  C   UNL d   1     -48.914  14.319  23.137  0.00  0.00     0.166 A 
ATOM      8  C   UNL d   1     -49.638  14.705  23.269  0.00  0.00     0.054 A 
ATOM      9  C   UNL d   1     -50.336  14.276  23.356  0.00  0.00     0.089 A 
ATOM     10  C   UNL d   1     -49.651  15.527  23.311  0.00  0.00     0.005 A 
ATOM     11  C   UNL d   1     -51.048  14.667  23.486  0.00  0.00     0.019 A 
ATOM     12  C   UNL d   1     -50.364  15.919  23.441  0.00  0.00     0.000 A 
ATOM     13  C   UNL d   1     -51.061  15.490  23.528  0.00  0.00     0.002 A 
ENDROOT
BRANCH   7  14
ATOM     14  N   UNL d   1     -48.223  14.759  23.051  0.00  0.00    -0.225 NA
BRANCH  14  15
ATOM     15  C   UNL d   1     -47.787  14.704  22.350  0.00  0.00     0.101 C 
BRANCH  15  16
ATOM     16  C   UNL d   1     -47.026  14.385  22.352  0.00  0.00     0.019 A 
ATOM     17  C   UNL d   1     -46.772  13.919  21.724  0.00  0.00     0.004 A 
ATOM     18  C   UNL d   1     -46.011  13.600  21.727  0.00  0.00     0.024 A 
ATOM     19  C   UNL d   1     -45.502  13.753  22.370  0.00  0.00     0.094 A 
ATOM     20  C   UNL d   1     -45.768  14.223  22.999  0.00  0.00     0.024 A 
ATOM     21  C   UNL d   1     -46.531  14.537  22.985  0.00  0.00     0.004 A 
BRANCH  19  22
ATOM     22  O   UNL d   1     -44.741  13.435  22.376  0.00  0.00    -0.328 OA
ATOM     23  C   UNL d   1     -44.610  12.682  22.061  0.00  0.00     0.181 C 
ENDBRANCH  19  22
ENDBRANCH  15  16
ENDBRANCH  14  15
ENDBRANCH   7  14
BRANCH   4  24
ATOM     24  C   UNL d   1     -49.203  11.651  23.052  0.00  0.00     0.025 A 
ATOM     25  C   UNL d   1     -49.002  11.428  22.285  0.00  0.00     0.031 A 
ATOM     26  C   UNL d   1     -48.439  10.830  22.161  0.00  0.00     0.140 A 
ATOM     27  F   UNL d   1     -48.238  10.606  21.394  0.00  0.00    -0.204 F 
ATOM     28  C   UNL d   1     -48.084  10.464  22.810  0.00  0.00     0.030 A 
ATOM     29  C   UNL d   1     -48.293  10.697  23.581  0.00  0.00     0.002 A 
ATOM     30  C   UNL d   1     -48.849  11.287  23.698  0.00  0.00     0.002 A 
ENDBRANCH   4  24
TORSDOF 5
ENDMDL
MODEL 5
REMARK VINA RESULT:      -1.3      2.202      4.229
REMARK  5 active torsions:
REMARK  status: ('A' for Active; 'I' for Inactive)
REMARK    1  A    between atoms: C_10  and  C_4 
REMARK    2  A    between atoms: N_11  and  C_7 
REMARK    3  A    between atoms: C_13  and  N_11 
REMARK    4  A    between atoms: C_15  and  C_13 
REMARK    5  A    between atoms: O_25  and  C_17 
ROOT
ATOM      1  C   UNL d   1     -40.159  14.571  18.765  0.00  0.00     0.186 A 
ATOM      2  N   UNL d   1     -40.098  14.423  17.942  0.00  0.00    -0.193 N 
ATOM      3  N   UNL d   1     -39.495  14.458  19.248  0.00  0.00    -0.206 NA
ATOM      4  C   UNL d   1     -40.936  14.817  18.917  0.00  0.00     0.140 A 
ATOM      5  N   UNL d   1     -40.838  14.579  17.598  0.00  0.00    -0.058 NA
ATOM      6  N   UNL d   1     -41.351  14.821  18.202  0.00  0.00    -0.127 NA
ATOM      7  C   UNL d   1     -38.779  14.204  18.931  0.00  0.00     0.166 A 
ATOM      8  C   UNL d   1     -38.728  14.060  18.114  0.00  0.00     0.054 A 
ATOM      9  C   UNL d   1     -39.382  14.169  17.625  0.00  0.00     0.089 A 
ATOM     10  C   UNL d   1     -38.012  13.806  17.797  0.00  0.00     0.005 A 
ATOM     11  C   UNL d   1     -39.321  14.023  16.817  0.00  0.00     0.019 A 
ATOM     12  C   UNL d   1     -37.951  13.660  16.988  0.00  0.00     0.000 A 
ATOM     13  C   UNL d   1     -38.605  13.769  16.499  0.00  0.00     0.002 A 
ENDROOT
BRANCH   7  14
ATOM     14  N   UNL d   1     -38.118  14.092  19.410  0.00  0.00    -0.225 NA
BRANCH  14  15
ATOM     15  C   UNL d   1     -38.094  13.449  19.931  0.00  0.00     0.101 C 
BRANCH  15  16
ATOM     16  C   UNL d   1     -38.055  13.571  20.746  0.00  0.00     0.019 A 
ATOM     17  C   UNL d   1     -37.979  14.333  21.047  0.00  0.00     0.004 A 
ATOM     18  C   UNL d   1     -37.940  14.455  21.862  0.00  0.00     0.024 A 
ATOM     19  C   UNL d   1     -37.979  13.802  22.378  0.00  0.00     0.094 A 
ATOM     20  C   UNL d   1     -38.056  13.038  22.066  0.00  0.00     0.024 A 
ATOM     21  C   UNL d   1     -38.094  12.927  21.249  0.00  0.00     0.004 A 
BRANCH  19  22
ATOM     22  O   UNL d   1     -37.940  13.920  23.194  0.00  0.00    -0.328 OA
ATOM     23  C   UNL d   1     -38.429  13.479  23.694  0.00  0.00     0.181 C 
ENDBRANCH  19  22
ENDBRANCH  15  16
ENDBRANCH  14  15
ENDBRANCH   7  14
BRANCH   4  24
ATOM     24  C   UNL d   1     -41.233  15.018  19.653  0.00  0.00     0.025 A 
ATOM     25  C   UNL d   1     -41.771  14.517  20.024  0.00  0.00     0.031 A 
ATOM     26  C   UNL d   1     -42.076  14.715  20.772  0.00  0.00     0.140 A 
ATOM     27  F   UNL d   1     -42.614  14.214  21.143  0.00  0.00    -0.204 F 
ATOM     28  C   UNL d   1     -41.835  15.415  21.137  0.00  0.00     0.030 A 
ATOM     29  C   UNL d   1     -41.291  15.915  20.754  0.00  0.00     0.002 A 
ATOM     30  C   UNL d   1     -40.994  15.715  20.018  0.00  0.00     0.002 A 
ENDBRANCH   4  24
TORSDOF 5
ENDMDL
