MODEL 1
REMARK VINA RESULT:      40.8      0.000      0.000
REMARK  11 active torsions:
REMARK  status: ('A' for Active; 'I' for Inactive)
REMARK    1  A    between atoms: C_8  and  C_1 
REMARK    2  A    between atoms: C_6  and  N_7 
REMARK    3  A    between atoms: N_19  and  C_6 
REMARK    4  A    between atoms: N_7  and  C_14 
REMARK    5  A    between atoms: C_11  and  N_7 
REMARK    6  A    between atoms: C_14  and  C_8 
REMARK    7  A    between atoms: C_9  and  C_11 
REMARK    8  A    between atoms: C_25  and  N_19 
REMARK    9  A    between atoms: O_23  and  C_20 
REMARK   10  A    between atoms: O_24  and  C_26 
REMARK   11  A    between atoms: C_26  and  C_25 
ROOT
ATOM      1  N   UNL d   1      13.369  12.663  -2.976  0.00  0.00    -0.279 N 
ENDROOT
BRANCH   1   2
ATOM      2  C   UNL d   1      13.451  12.190  -2.308  0.00  0.00     0.206 C 
ATOM      3  S   UNL d   1      12.794  12.041  -1.825  0.00  0.00    -0.038 SA
BRANCH   2   4
ATOM      4  N   UNL d   1      14.186  11.864  -2.116  0.00  0.00    -0.215 NA
BRANCH   4   5
ATOM      5  C   UNL d   1      14.454  11.898  -1.336  0.00  0.00     0.128 C 
BRANCH   5   6
ATOM      6  C   UNL d   1      15.249  11.781  -1.166  0.00  0.00     0.137 C 
BRANCH   6   7
ATOM      7  O   UNL d   1      15.549  12.012  -0.434  0.00  0.00    -0.325 OA
ATOM      8  C   UNL d   1      15.191  12.620  -0.021  0.00  0.00     0.182 C 
ENDBRANCH   6   7
ENDBRANCH   5   6
ENDBRANCH   4   5
ENDBRANCH   2   4
ENDBRANCH   1   2
BRANCH   1   9
ATOM      9  C   UNL d   1      13.794  13.380  -3.035  0.00  0.00     0.082 C 
BRANCH   9  10
ATOM     10  C   UNL d   1      13.392  14.104  -3.047  0.00  0.00     0.021 C 
BRANCH  10  11
ATOM     11  C   UNL d   1      13.800  14.804  -3.182  0.00  0.00     0.021 A 
ATOM     12  C   UNL d   1      13.886  15.193  -3.918  0.00  0.00     0.082 A 
ATOM     13  N   UNL d   1      14.336  15.871  -3.793  0.00  0.00    -0.246 NA
ATOM     14  C   UNL d   1      13.570  14.935  -4.638  0.00  0.00     0.021 C 
ATOM     15  C   UNL d   1      14.534  15.913  -2.993  0.00  0.00     0.082 A 
ATOM     16  C   UNL d   1      14.201  15.251  -2.619  0.00  0.00     0.021 A 
ATOM     17  C   UNL d   1      14.969  16.459  -2.557  0.00  0.00     0.021 A 
ATOM     18  C   UNL d   1      14.310  15.149  -1.811  0.00  0.00     0.026 A 
ATOM     19  C   UNL d   1      14.747  15.697  -1.371  0.00  0.00     0.094 A 
ATOM     20  C   UNL d   1      15.074  16.352  -1.754  0.00  0.00     0.026 A 
BRANCH  19  21
ATOM     21  O   UNL d   1      14.854  15.591  -0.560  0.00  0.00    -0.328 OA
ATOM     22  C   UNL d   1      15.553  15.239  -0.283  0.00  0.00     0.181 C 
ENDBRANCH  19  21
ENDBRANCH  10  11
ENDBRANCH   9  10
ENDBRANCH   1   9
BRANCH   1  23
ATOM     23  C   UNL d   1      12.869  12.430  -3.583  0.00  0.00     0.107 C 
BRANCH  23  24
ATOM     24  C   UNL d   1      13.187  12.188  -4.314  0.00  0.00     0.118 A 
ATOM     25  O   UNL d   1      12.769  12.113  -5.028  0.00  0.00    -0.304 OA
ATOM     26  C   UNL d   1      13.301  11.860  -5.608  0.00  0.00     0.123 A 
ATOM     27  C   UNL d   1      14.034  11.781  -5.257  0.00  0.00     0.029 A 
ATOM     28  C   UNL d   1      13.956  11.986  -4.455  0.00  0.00     0.028 A 
ENDBRANCH  23  24
ENDBRANCH   1  23
TORSDOF 11
ENDMDL
MODEL 2
REMARK VINA RESULT:      41.5      0.869      2.781
REMARK  11 active torsions:
REMARK  status: ('A' for Active; 'I' for Inactive)
REMARK    1  A    between atoms: C_8  and  C_1 
REMARK    2  A    between atoms: C_6  and  N_7 
REMARK    3  A    between atoms: N_19  and  C_6 
REMARK    4  A    between atoms: N_7  and  C_14 
REMARK    5  A    between atoms: C_11  and  N_7 
REMARK    6  A    between atoms: C_14  and  C_8 
REMARK    7  A    between atoms: C_9  and  C_11 
REMARK    8  A    between atoms: C_25  and  N_19 
REMARK    9  A    between atoms: O_23  and  C_20 
REMARK   10  A    between atoms: O_24  and  C_26 
REMARK   11  A    between atoms: C_26  and  C_25 
ROOT
ATOM      1  N   UNL d   1      14.161  13.263  -2.567  0.00  0.00    -0.279 N 
ENDROOT
BRANCH   1   2
ATOM      2  C   UNL d   1      13.524  13.015  -3.025  0.00  0.00     0.206 C 
ATOM      3  S   UNL d   1      12.789  13.390  -2.946  0.00  0.00    -0.038 SA
BRANCH   2   4
ATOM      4  N   UNL d   1      13.615  12.394  -3.563  0.00  0.00    -0.215 NA
BRANCH   4   5
ATOM      5  C   UNL d   1      12.949  12.079  -3.935  0.00  0.00     0.128 C 
BRANCH   5   6
ATOM      6  C   UNL d   1      12.900  12.067  -4.755  0.00  0.00     0.137 C 
BRANCH   6   7
ATOM      7  O   UNL d   1      13.588  12.112  -5.206  0.00  0.00    -0.325 OA
ATOM      8  C   UNL d   1      13.606  11.781  -5.954  0.00  0.00     0.182 C 
ENDBRANCH   6   7
ENDBRANCH   5   6
ENDBRANCH   4   5
ENDBRANCH   2   4
ENDBRANCH   1   2
BRANCH   1   9
ATOM      9  C   UNL d   1      14.304  14.079  -2.458  0.00  0.00     0.082 C 
BRANCH   9  10
ATOM     10  C   UNL d   1      14.629  14.530  -3.073  0.00  0.00     0.021 C 
BRANCH  10  11
ATOM     11  C   UNL d   1      14.675  15.348  -3.007  0.00  0.00     0.021 A 
ATOM     12  C   UNL d   1      14.533  15.902  -3.619  0.00  0.00     0.082 A 
ATOM     13  N   UNL d   1      14.642  16.656  -3.305  0.00  0.00    -0.246 NA
ATOM     14  C   UNL d   1      14.320  15.716  -4.396  0.00  0.00     0.021 C 
ATOM     15  C   UNL d   1      14.851  16.583  -2.509  0.00  0.00     0.082 A 
ATOM     16  C   UNL d   1      14.870  15.773  -2.330  0.00  0.00     0.021 A 
ATOM     17  C   UNL d   1      15.024  17.140  -1.928  0.00  0.00     0.021 A 
ATOM     18  C   UNL d   1      15.063  15.535  -1.568  0.00  0.00     0.026 A 
ATOM     19  C   UNL d   1      15.238  16.093  -0.983  0.00  0.00     0.094 A 
ATOM     20  C   UNL d   1      15.216  16.896  -1.173  0.00  0.00     0.026 A 
BRANCH  19  21
ATOM     21  O   UNL d   1      15.432  15.850  -0.218  0.00  0.00    -0.328 OA
ATOM     22  C   UNL d   1      15.375  15.047  -0.018  0.00  0.00     0.181 C 
ENDBRANCH  19  21
ENDBRANCH  10  11
ENDBRANCH   9  10
ENDBRANCH   1   9
BRANCH   1  23
ATOM     23  C   UNL d   1      14.654  12.708  -2.217  0.00  0.00     0.107 C 
BRANCH  23  24
ATOM     24  C   UNL d   1      14.492  12.435  -1.447  0.00  0.00     0.118 A 
ATOM     25  O   UNL d   1      14.878  12.676  -0.753  0.00  0.00    -0.304 OA
ATOM     26  C   UNL d   1      14.542  12.265  -0.119  0.00  0.00     0.123 A 
ATOM     27  C   UNL d   1      13.959  11.779  -0.419  0.00  0.00     0.029 A 
ATOM     28  C   UNL d   1      13.933  11.889  -1.242  0.00  0.00     0.028 A 
ENDBRANCH  23  24
ENDBRANCH   1  23
TORSDOF 11
ENDMDL
MODEL 3
REMARK VINA RESULT:      43.5      1.370      3.689
REMARK  11 active torsions:
REMARK  status: ('A' for Active; 'I' for Inactive)
REMARK    1  A    between atoms: C_8  and  C_1 
REMARK    2  A    between atoms: C_6  and  N_7 
REMARK    3  A    between atoms: N_19  and  C_6 
REMARK    4  A    between atoms: N_7  and  C_14 
REMARK    5  A    between atoms: C_11  and  N_7 
REMARK    6  A    between atoms: C_14  and  C_8 
REMARK    7  A    between atoms: C_9  and  C_11 
REMARK    8  A    between atoms: C_25  and  N_19 
REMARK    9  A    between atoms: O_23  and  C_20 
REMARK   10  A    between atoms: O_24  and  C_26 
REMARK   11  A    between atoms: C_26  and  C_25 
ROOT
ATOM      1  N   UNL d   1      13.713  14.460  -3.327  0.00  0.00    -0.279 N 
ENDROOT
BRANCH   1   2
ATOM      2  C   UNL d   1      13.235  14.336  -3.985  0.00  0.00     0.206 C 
ATOM      3  S   UNL d   1      12.962  14.983  -4.424  0.00  0.00    -0.038 SA
BRANCH   2   4
ATOM      4  N   UNL d   1      13.027  13.567  -4.210  0.00  0.00    -0.215 NA
BRANCH   4   5
ATOM      5  C   UNL d   1      13.144  13.328  -4.991  0.00  0.00     0.128 C 
BRANCH   5   6
ATOM      6  C   UNL d   1      12.784  12.645  -5.272  0.00  0.00     0.137 C 
BRANCH   6   7
ATOM      7  O   UNL d   1      13.177  11.923  -5.212  0.00  0.00    -0.325 OA
ATOM      8  C   UNL d   1      13.925  11.839  -5.529  0.00  0.00     0.182 C 
ENDBRANCH   6   7
ENDBRANCH   5   6
ENDBRANCH   4   5
ENDBRANCH   2   4
ENDBRANCH   1   2
BRANCH   1   9
ATOM      9  C   UNL d   1      14.050  13.808  -2.927  0.00  0.00     0.082 C 
BRANCH   9  10
ATOM     10  C   UNL d   1      13.756  13.573  -2.189  0.00  0.00     0.021 C 
BRANCH  10  11
ATOM     11  C   UNL d   1      14.159  13.018  -1.739  0.00  0.00     0.021 A 
ATOM     12  C   UNL d   1      14.048  12.189  -1.760  0.00  0.00     0.082 A 
ATOM     13  N   UNL d   1      14.569  11.851  -1.218  0.00  0.00    -0.246 NA
ATOM     14  C   UNL d   1      13.508  11.788  -2.241  0.00  0.00     0.021 C 
ATOM     15  C   UNL d   1      15.004  12.454  -0.859  0.00  0.00     0.082 A 
ATOM     16  C   UNL d   1      14.748  13.173  -1.184  0.00  0.00     0.021 A 
ATOM     17  C   UNL d   1      15.595  12.446  -0.285  0.00  0.00     0.021 A 
ATOM     18  C   UNL d   1      15.089  13.875  -0.927  0.00  0.00     0.026 A 
ATOM     19  C   UNL d   1      15.682  13.869  -0.350  0.00  0.00     0.094 A 
ATOM     20  C   UNL d   1      15.930  13.147  -0.034  0.00  0.00     0.026 A 
BRANCH  19  21
ATOM     21  O   UNL d   1      16.023  14.576  -0.094  0.00  0.00    -0.328 OA
ATOM     22  C   UNL d   1      15.550  15.253  -0.018  0.00  0.00     0.181 C 
ENDBRANCH  19  21
ENDBRANCH  10  11
ENDBRANCH   9  10
ENDBRANCH   1   9
BRANCH   1  23
ATOM     23  C   UNL d   1      13.856  15.224  -3.064  0.00  0.00     0.107 C 
BRANCH  23  24
ATOM     24  C   UNL d   1      14.329  15.738  -3.518  0.00  0.00     0.118 A 
ATOM     25  O   UNL d   1      14.777  16.373  -3.228  0.00  0.00    -0.304 OA
ATOM     26  C   UNL d   1      15.158  16.730  -3.870  0.00  0.00     0.123 A 
ATOM     27  C   UNL d   1      14.947  16.320  -4.543  0.00  0.00     0.029 A 
ATOM     28  C   UNL d   1      14.434  15.706  -4.318  0.00  0.00     0.028 A 
ENDBRANCH  23  24
ENDBRANCH   1  23
TORSDOF 11
ENDMDL
