MODEL 1
REMARK VINA RESULT:      16.9      0.000      0.000
REMARK  2 active torsions:
REMARK  status: ('A' for Active; 'I' for Inactive)
REMARK    1  A    between atoms: C_6  and  C_1 
REMARK    2  A    between atoms: O_12  and  C_9 
ROOT
ATOM      1  C   UNL d   1      59.274  49.696  51.224  0.00  0.00     0.128 A 
ATOM      2  C   UNL d   1      59.249  49.700  50.399  0.00  0.00     0.306 A 
ATOM      3  O   UNL d   1      58.537  49.702  50.017  0.00  0.00    -0.271 OA
ATOM      4  C   UNL d   1      58.587  49.694  51.644  0.00  0.00     0.013 A 
ATOM      5  C   UNL d   1      57.810  49.701  50.443  0.00  0.00     0.125 A 
ATOM      6  C   UNL d   1      57.835  49.697  51.268  0.00  0.00     0.025 A 
ATOM      7  O   UNL d   1      59.936  49.701  49.974  0.00  0.00    -0.259 OA
ATOM      8  C   UNL d   1      57.076  49.703  50.061  0.00  0.00     0.117 A 
ATOM      9  C   UNL d   1      57.126  49.695  51.689  0.00  0.00     0.002 A 
ATOM     10  C   UNL d   1      56.388  49.698  51.312  0.00  0.00     0.002 A 
ATOM     11  C   UNL d   1      56.363  49.702  50.487  0.00  0.00     0.026 A 
ENDROOT
BRANCH   1  12
ATOM     12  C   UNL d   1      59.986  49.693  51.632  0.00  0.00     0.216 C 
ATOM     13  O   UNL d   1      60.003  49.707  52.479  0.00  0.00    -0.644 OA
ATOM     14  O   UNL d   1      60.636  49.677  51.168  0.00  0.00    -0.644 OA
ENDBRANCH   1  12
BRANCH   8  15
ATOM     15  O   UNL d   1      57.051  49.707  49.246  0.00  0.00    -0.326 OA
ATOM     16  C   UNL d   1      56.344  49.637  48.859  0.00  0.00     0.181 C 
ENDBRANCH   8  15
TORSDOF 2
ENDMDL
MODEL 2
REMARK VINA RESULT:      18.2      0.957      3.055
REMARK  2 active torsions:
REMARK  status: ('A' for Active; 'I' for Inactive)
REMARK    1  A    between atoms: C_6  and  C_1 
REMARK    2  A    between atoms: O_12  and  C_9 
ROOT
ATOM      1  C   UNL d   1      57.522  49.700  50.294  0.00  0.00     0.128 A 
ATOM      2  C   UNL d   1      58.016  49.702  49.634  0.00  0.00     0.306 A 
ATOM      3  O   UNL d   1      58.819  49.704  49.730  0.00  0.00    -0.271 OA
ATOM      4  C   UNL d   1      57.843  49.701  51.033  0.00  0.00     0.013 A 
ATOM      5  C   UNL d   1      59.169  49.705  50.497  0.00  0.00     0.125 A 
ATOM      6  C   UNL d   1      58.675  49.703  51.157  0.00  0.00     0.025 A 
ATOM      7  O   UNL d   1      57.698  49.701  48.892  0.00  0.00    -0.259 OA
ATOM      8  C   UNL d   1      59.989  49.707  50.606  0.00  0.00     0.117 A 
ATOM      9  C   UNL d   1      59.014  49.704  51.909  0.00  0.00     0.002 A 
ATOM     10  C   UNL d   1      59.834  49.706  52.025  0.00  0.00     0.002 A 
ATOM     11  C   UNL d   1      60.328  49.708  51.364  0.00  0.00     0.026 A 
ENDROOT
BRANCH   1  12
ATOM     12  C   UNL d   1      56.705  49.698  50.220  0.00  0.00     0.216 C 
ATOM     13  O   UNL d   1      56.336  49.687  49.457  0.00  0.00    -0.644 OA
ATOM     14  O   UNL d   1      56.307  49.708  50.913  0.00  0.00    -0.644 OA
ENDBRANCH   1  12
BRANCH   8  15
ATOM     15  O   UNL d   1      60.478  49.708  49.952  0.00  0.00    -0.326 OA
ATOM     16  C   UNL d   1      61.278  49.619  50.041  0.00  0.00     0.181 C 
ENDBRANCH   8  15
TORSDOF 2
ENDMDL
MODEL 3
REMARK VINA RESULT:      18.7      0.928      1.676
REMARK  2 active torsions:
REMARK  status: ('A' for Active; 'I' for Inactive)
REMARK    1  A    between atoms: C_6  and  C_1 
REMARK    2  A    between atoms: O_12  and  C_9 
ROOT
ATOM      1  C   UNL d   1      59.943  49.609  50.738  0.00  0.00     0.128 A 
ATOM      2  C   UNL d   1      59.508  49.606  51.440  0.00  0.00     0.306 A 
ATOM      3  O   UNL d   1      58.700  49.627  51.415  0.00  0.00    -0.271 OA
ATOM      4  C   UNL d   1      59.558  49.634  50.031  0.00  0.00     0.013 A 
ATOM      5  C   UNL d   1      58.284  49.652  50.682  0.00  0.00     0.125 A 
ATOM      6  C   UNL d   1      58.719  49.656  49.980  0.00  0.00     0.025 A 
ATOM      7  O   UNL d   1      59.889  49.582  52.151  0.00  0.00    -0.259 OA
ATOM      8  C   UNL d   1      57.458  49.673  50.645  0.00  0.00     0.117 A 
ATOM      9  C   UNL d   1      58.316  49.680  49.261  0.00  0.00     0.002 A 
ATOM     10  C   UNL d   1      57.489  49.702  49.218  0.00  0.00     0.002 A 
ATOM     11  C   UNL d   1      57.054  49.698  49.920  0.00  0.00     0.026 A 
ENDROOT
BRANCH   1  12
ATOM     12  C   UNL d   1      60.763  49.589  50.741  0.00  0.00     0.216 C 
ATOM     13  O   UNL d   1      61.195  49.497  51.464  0.00  0.00    -0.644 OA
ATOM     14  O   UNL d   1      61.100  49.662  50.020  0.00  0.00    -0.644 OA
ENDBRANCH   1  12
BRANCH   8  15
ATOM     15  O   UNL d   1      57.028  49.670  51.339  0.00  0.00    -0.326 OA
ATOM     16  C   UNL d   1      56.220  49.705  51.318  0.00  0.00     0.181 C 
ENDBRANCH   8  15
TORSDOF 2
ENDMDL
