MODEL 1
REMARK VINA RESULT:      -8.6      0.000      0.000
REMARK  4 active torsions:
REMARK  status: ('A' for Active; 'I' for Inactive)
REMARK    1  A    between atoms: N_2  and  S_1 
REMARK    2  A    between atoms: C_7  and  S_1 
REMARK    3  A    between atoms: C_11  and  C_4 
REMARK    4  A    between atoms: C_18  and  C_11 
ROOT
ATOM      1  N   UNL d   1     -48.042  12.534  22.964  0.00  0.00    -0.202 N 
ATOM      2  C   UNL d   1     -48.102  11.878  23.454  0.00  0.00     0.218 A 
ATOM      3  C   UNL d   1     -47.233  12.716  22.873  0.00  0.00     0.135 A 
ATOM      4  N   UNL d   1     -47.336  11.651  23.668  0.00  0.00    -0.178 NA
ATOM      5  C   UNL d   1     -46.810  12.171  23.307  0.00  0.00     0.298 A 
ATOM      6  S   UNL d   1     -48.803  11.500  23.698  0.00  0.00    -0.037 SA
ATOM      7  O   UNL d   1     -45.978  12.151  23.369  0.00  0.00    -0.264 OA
ENDROOT
BRANCH   1   8
ATOM      8  S   UNL d   1     -48.722  12.886  22.660  0.00  0.00     0.273 S 
ATOM      9  O   UNL d   1     -48.920  13.159  23.421  0.00  0.00    -0.200 OA
ATOM     10  O   UNL d   1     -48.526  12.617  21.907  0.00  0.00    -0.200 OA
BRANCH   8  11
ATOM     11  C   UNL d   1     -49.403  13.238  22.357  0.00  0.00     0.104 A 
ATOM     12  C   UNL d   1     -49.807  12.884  21.734  0.00  0.00     0.012 A 
ATOM     13  C   UNL d   1     -50.491  13.238  21.430  0.00  0.00     0.001 A 
ATOM     14  C   UNL d   1     -49.522  12.168  21.415  0.00  0.00     0.001 C 
ATOM     15  C   UNL d   1     -50.767  13.944  21.749  0.00  0.00     0.000 A 
ATOM     16  C   UNL d   1     -50.362  14.300  22.374  0.00  0.00     0.001 A 
ATOM     17  C   UNL d   1     -49.678  13.947  22.678  0.00  0.00     0.013 A 
ATOM     18  C   UNL d   1     -50.644  15.016  22.695  0.00  0.00     0.000 C 
ENDBRANCH   8  11
ENDBRANCH   1   8
BRANCH   3  19
ATOM     19  C   UNL d   1     -46.901  13.328  22.432  0.00  0.00     0.023 C 
BRANCH  19  20
ATOM     20  C   UNL d   1     -46.154  13.618  22.621  0.00  0.00     0.002 C 
ATOM     21  C   UNL d   1     -46.075  14.193  23.202  0.00  0.00     0.000 C 
ATOM     22  C   UNL d   1     -45.494  13.334  22.233  0.00  0.00     0.000 C 
ENDBRANCH  19  20
ENDBRANCH   3  19
TORSDOF 4
ENDMDL
MODEL 2
REMARK VINA RESULT:      -8.4      1.183      3.581
REMARK  4 active torsions:
REMARK  status: ('A' for Active; 'I' for Inactive)
REMARK    1  A    between atoms: N_2  and  S_1 
REMARK    2  A    between atoms: C_7  and  S_1 
REMARK    3  A    between atoms: C_11  and  C_4 
REMARK    4  A    between atoms: C_18  and  C_11 
ROOT
ATOM      1  N   UNL d   1     -49.280  13.393  22.392  0.00  0.00    -0.202 N 
ATOM      2  C   UNL d   1     -49.656  13.049  21.748  0.00  0.00     0.218 A 
ATOM      3  C   UNL d   1     -49.767  14.008  22.676  0.00  0.00     0.135 A 
ATOM      4  N   UNL d   1     -50.372  13.445  21.631  0.00  0.00    -0.178 NA
ATOM      5  C   UNL d   1     -50.431  14.031  22.205  0.00  0.00     0.298 A 
ATOM      6  S   UNL d   1     -49.376  12.413  21.288  0.00  0.00    -0.037 SA
ATOM      7  O   UNL d   1     -51.064  14.567  22.297  0.00  0.00    -0.264 OA
ENDROOT
BRANCH   1   8
ATOM      8  S   UNL d   1     -48.548  13.111  22.641  0.00  0.00     0.273 S 
ATOM      9  O   UNL d   1     -48.193  13.431  21.960  0.00  0.00    -0.200 OA
ATOM     10  O   UNL d   1     -48.899  12.794  23.316  0.00  0.00    -0.200 OA
BRANCH   8  11
ATOM     11  C   UNL d   1     -47.815  12.829  22.891  0.00  0.00     0.104 A 
ATOM     12  C   UNL d   1     -47.774  12.190  23.407  0.00  0.00     0.012 A 
ATOM     13  C   UNL d   1     -47.037  11.906  23.658  0.00  0.00     0.001 A 
ATOM     14  C   UNL d   1     -48.479  11.832  23.674  0.00  0.00     0.001 C 
ATOM     15  C   UNL d   1     -46.346  12.263  23.391  0.00  0.00     0.000 A 
ATOM     16  C   UNL d   1     -46.386  12.904  22.873  0.00  0.00     0.001 A 
ATOM     17  C   UNL d   1     -47.122  13.188  22.622  0.00  0.00     0.013 A 
ATOM     18  C   UNL d   1     -45.683  13.263  22.604  0.00  0.00     0.000 C 
ENDBRANCH   8  11
ENDBRANCH   1   8
BRANCH   3  19
ATOM     19  C   UNL d   1     -49.622  14.510  23.313  0.00  0.00     0.023 C 
BRANCH  19  20
ATOM     20  C   UNL d   1     -49.912  15.281  23.309  0.00  0.00     0.002 C 
ATOM     21  C   UNL d   1     -50.614  15.454  23.698  0.00  0.00     0.000 C 
ATOM     22  C   UNL d   1     -49.504  15.871  22.919  0.00  0.00     0.000 C 
ENDBRANCH  19  20
ENDBRANCH   3  19
TORSDOF 4
ENDMDL
MODEL 3
REMARK VINA RESULT:      -8.0      0.978      3.510
REMARK  4 active torsions:
REMARK  status: ('A' for Active; 'I' for Inactive)
REMARK    1  A    between atoms: N_2  and  S_1 
REMARK    2  A    between atoms: C_7  and  S_1 
REMARK    3  A    between atoms: C_11  and  C_4 
REMARK    4  A    between atoms: C_18  and  C_11 
ROOT
ATOM      1  N   UNL d   1     -48.622  12.421  22.932  0.00  0.00    -0.202 N 
ATOM      2  C   UNL d   1     -48.617  11.713  23.348  0.00  0.00     0.218 A 
ATOM      3  C   UNL d   1     -49.405  12.569  22.686  0.00  0.00     0.135 A 
ATOM      4  N   UNL d   1     -49.390  11.421  23.362  0.00  0.00    -0.178 NA
ATOM      5  C   UNL d   1     -49.866  11.954  22.953  0.00  0.00     0.298 A 
ATOM      6  S   UNL d   1     -47.956  11.345  23.698  0.00  0.00    -0.037 SA
ATOM      7  O   UNL d   1     -50.688  11.882  22.828  0.00  0.00    -0.264 OA
ENDROOT
BRANCH   1   8
ATOM      8  S   UNL d   1     -47.922  12.843  22.826  0.00  0.00     0.273 S 
ATOM      9  O   UNL d   1     -47.892  12.594  22.033  0.00  0.00    -0.200 OA
ATOM     10  O   UNL d   1     -47.952  13.089  23.612  0.00  0.00    -0.200 OA
BRANCH   8  11
ATOM     11  C   UNL d   1     -47.223  13.265  22.721  0.00  0.00     0.104 A 
ATOM     12  C   UNL d   1     -47.189  14.063  22.919  0.00  0.00     0.012 A 
ATOM     13  C   UNL d   1     -46.486  14.487  22.813  0.00  0.00     0.001 A 
ATOM     14  C   UNL d   1     -47.869  14.438  23.226  0.00  0.00     0.001 C 
ATOM     15  C   UNL d   1     -45.820  14.111  22.510  0.00  0.00     0.000 A 
ATOM     16  C   UNL d   1     -45.852  13.311  22.311  0.00  0.00     0.001 A 
ATOM     17  C   UNL d   1     -46.555  12.887  22.417  0.00  0.00     0.013 A 
ATOM     18  C   UNL d   1     -45.175  12.933  22.005  0.00  0.00     0.000 C 
ENDBRANCH   8  11
ENDBRANCH   1   8
BRANCH   3  19
ATOM     19  C   UNL d   1     -49.682  13.213  22.252  0.00  0.00     0.023 C 
BRANCH  19  20
ATOM     20  C   UNL d   1     -50.432  13.193  21.913  0.00  0.00     0.002 C 
ATOM     21  C   UNL d   1     -50.543  12.823  21.189  0.00  0.00     0.000 C 
ATOM     22  C   UNL d   1     -51.064  13.540  22.297  0.00  0.00     0.000 C 
ENDBRANCH  19  20
ENDBRANCH   3  19
TORSDOF 4
ENDMDL
MODEL 4
REMARK VINA RESULT:      -7.8      1.270      1.876
REMARK  4 active torsions:
REMARK  status: ('A' for Active; 'I' for Inactive)
REMARK    1  A    between atoms: N_2  and  S_1 
REMARK    2  A    between atoms: C_7  and  S_1 
REMARK    3  A    between atoms: C_11  and  C_4 
REMARK    4  A    between atoms: C_18  and  C_11 
ROOT
ATOM      1  N   UNL d   1     -47.963  13.819  22.706  0.00  0.00    -0.202 N 
ATOM      2  C   UNL d   1     -47.911  14.631  22.821  0.00  0.00     0.218 A 
ATOM      3  C   UNL d   1     -47.191  13.506  22.725  0.00  0.00     0.135 A 
ATOM      4  N   UNL d   1     -47.112  14.823  22.912  0.00  0.00    -0.178 NA
ATOM      5  C   UNL d   1     -46.679  14.126  22.851  0.00  0.00     0.298 A 
ATOM      6  S   UNL d   1     -48.543  15.173  22.845  0.00  0.00    -0.037 SA
ATOM      7  O   UNL d   1     -45.849  14.057  22.908  0.00  0.00    -0.264 OA
ENDROOT
BRANCH   1   8
ATOM      8  S   UNL d   1     -48.699  13.465  22.598  0.00  0.00     0.273 S 
ATOM      9  O   UNL d   1     -48.611  13.532  21.774  0.00  0.00    -0.200 OA
ATOM     10  O   UNL d   1     -48.787  13.398  23.415  0.00  0.00    -0.200 OA
BRANCH   8  11
ATOM     11  C   UNL d   1     -49.435  13.110  22.491  0.00  0.00     0.104 A 
ATOM     12  C   UNL d   1     -49.730  12.996  21.731  0.00  0.00     0.012 A 
ATOM     13  C   UNL d   1     -50.470  12.639  21.623  0.00  0.00     0.001 A 
ATOM     14  C   UNL d   1     -49.278  13.242  21.074  0.00  0.00     0.001 C 
ATOM     15  C   UNL d   1     -50.911  12.399  22.275  0.00  0.00     0.000 A 
ATOM     16  C   UNL d   1     -50.616  12.513  23.037  0.00  0.00     0.001 A 
ATOM     17  C   UNL d   1     -49.876  12.869  23.145  0.00  0.00     0.013 A 
ATOM     18  C   UNL d   1     -51.064  12.268  23.696  0.00  0.00     0.000 C 
ENDBRANCH   8  11
ENDBRANCH   1   8
BRANCH   3  19
ATOM     19  C   UNL d   1     -46.966  12.718  22.635  0.00  0.00     0.023 C 
BRANCH  19  20
ATOM     20  C   UNL d   1     -46.259  12.449  22.959  0.00  0.00     0.002 C 
ATOM     21  C   UNL d   1     -45.559  12.533  22.538  0.00  0.00     0.000 C 
ATOM     22  C   UNL d   1     -46.252  12.100  23.698  0.00  0.00     0.000 C 
ENDBRANCH  19  20
ENDBRANCH   3  19
TORSDOF 4
ENDMDL
MODEL 5
REMARK VINA RESULT:      -7.5      1.257      3.818
REMARK  4 active torsions:
REMARK  status: ('A' for Active; 'I' for Inactive)
REMARK    1  A    between atoms: N_2  and  S_1 
REMARK    2  A    between atoms: C_7  and  S_1 
REMARK    3  A    between atoms: C_11  and  C_4 
REMARK    4  A    between atoms: C_18  and  C_11 
ROOT
ATOM      1  N   UNL d   1     -48.492  13.878  22.457  0.00  0.00    -0.202 N 
ATOM      2  C   UNL d   1     -48.529  14.699  22.472  0.00  0.00     0.218 A 
ATOM      3  C   UNL d   1     -49.258  13.588  22.306  0.00  0.00     0.135 A 
ATOM      4  N   UNL d   1     -49.313  14.919  22.331  0.00  0.00    -0.178 NA
ATOM      5  C   UNL d   1     -49.753  14.230  22.230  0.00  0.00     0.298 A 
ATOM      6  S   UNL d   1     -47.896  15.225  22.605  0.00  0.00    -0.037 SA
ATOM      7  O   UNL d   1     -50.572  14.189  22.076  0.00  0.00    -0.264 OA
ENDROOT
BRANCH   1   8
ATOM      8  S   UNL d   1     -47.773  13.496  22.582  0.00  0.00     0.273 S 
ATOM      9  O   UNL d   1     -47.817  13.677  23.393  0.00  0.00    -0.200 OA
ATOM     10  O   UNL d   1     -47.729  13.316  21.779  0.00  0.00    -0.200 OA
BRANCH   8  11
ATOM     11  C   UNL d   1     -47.053  13.114  22.706  0.00  0.00     0.104 A 
ATOM     12  C   UNL d   1     -46.999  12.509  23.262  0.00  0.00     0.012 A 
ATOM     13  C   UNL d   1     -46.276  12.125  23.387  0.00  0.00     0.001 A 
ATOM     14  C   UNL d   1     -47.677  12.289  23.696  0.00  0.00     0.001 C 
ATOM     15  C   UNL d   1     -45.612  12.347  22.956  0.00  0.00     0.000 A 
ATOM     16  C   UNL d   1     -45.665  12.953  22.398  0.00  0.00     0.001 A 
ATOM     17  C   UNL d   1     -46.388  13.337  22.273  0.00  0.00     0.013 A 
ATOM     18  C   UNL d   1     -44.990  13.175  21.963  0.00  0.00     0.000 C 
ENDBRANCH   8  11
ENDBRANCH   1   8
BRANCH   3  19
ATOM     19  C   UNL d   1     -49.494  12.800  22.241  0.00  0.00     0.023 C 
BRANCH  19  20
ATOM     20  C   UNL d   1     -50.287  12.613  22.125  0.00  0.00     0.002 C 
ATOM     21  C   UNL d   1     -50.777  12.496  22.773  0.00  0.00     0.000 C 
ATOM     22  C   UNL d   1     -50.586  12.545  21.368  0.00  0.00     0.000 C 
ENDBRANCH  19  20
ENDBRANCH   3  19
TORSDOF 4
ENDMDL
MODEL 6
REMARK VINA RESULT:      -7.1      1.410      2.070
REMARK  4 active torsions:
REMARK  status: ('A' for Active; 'I' for Inactive)
REMARK    1  A    between atoms: N_2  and  S_1 
REMARK    2  A    between atoms: C_7  and  S_1 
REMARK    3  A    between atoms: C_11  and  C_4 
REMARK    4  A    between atoms: C_18  and  C_11 
ROOT
ATOM      1  N   UNL d   1     -48.924  12.723  22.476  0.00  0.00    -0.202 N 
ATOM      2  C   UNL d   1     -49.367  12.324  21.912  0.00  0.00     0.218 A 
ATOM      3  C   UNL d   1     -48.361  12.192  22.785  0.00  0.00     0.135 A 
ATOM      4  N   UNL d   1     -49.082  11.549  21.868  0.00  0.00    -0.178 NA
ATOM      5  C   UNL d   1     -48.465  11.478  22.408  0.00  0.00     0.298 A 
ATOM      6  S   UNL d   1     -49.993  12.634  21.458  0.00  0.00    -0.037 SA
ATOM      7  O   UNL d   1     -48.015  10.791  22.552  0.00  0.00    -0.264 OA
ENDROOT
BRANCH   1   8
ATOM      8  S   UNL d   1     -49.083  13.515  22.641  0.00  0.00     0.273 S 
ATOM      9  O   UNL d   1     -49.206  13.323  23.441  0.00  0.00    -0.200 OA
ATOM     10  O   UNL d   1     -48.961  13.705  21.848  0.00  0.00    -0.200 OA
BRANCH   8  11
ATOM     11  C   UNL d   1     -49.242  14.306  22.806  0.00  0.00     0.104 A 
ATOM     12  C   UNL d   1     -48.692  14.886  22.611  0.00  0.00     0.012 A 
ATOM     13  C   UNL d   1     -48.852  15.682  22.777  0.00  0.00     0.001 A 
ATOM     14  C   UNL d   1     -47.975  14.665  22.247  0.00  0.00     0.001 C 
ATOM     15  C   UNL d   1     -49.561  15.893  23.137  0.00  0.00     0.000 A 
ATOM     16  C   UNL d   1     -50.114  15.312  23.333  0.00  0.00     0.001 A 
ATOM     17  C   UNL d   1     -49.954  14.517  23.167  0.00  0.00     0.013 A 
ATOM     18  C   UNL d   1     -50.831  15.529  23.697  0.00  0.00     0.000 C 
ENDBRANCH   8  11
ENDBRANCH   1   8
BRANCH   3  19
ATOM     19  C   UNL d   1     -47.794  12.342  23.365  0.00  0.00     0.023 C 
BRANCH  19  20
ATOM     20  C   UNL d   1     -47.153  11.833  23.459  0.00  0.00     0.002 C 
ATOM     21  C   UNL d   1     -46.392  12.104  23.313  0.00  0.00     0.000 C 
ATOM     22  C   UNL d   1     -47.274  11.061  23.698  0.00  0.00     0.000 C 
ENDBRANCH  19  20
ENDBRANCH   3  19
TORSDOF 4
ENDMDL
MODEL 7
REMARK VINA RESULT:      -6.1      8.684     10.370
REMARK  4 active torsions:
REMARK  status: ('A' for Active; 'I' for Inactive)
REMARK    1  A    between atoms: N_2  and  S_1 
REMARK    2  A    between atoms: C_7  and  S_1 
REMARK    3  A    between atoms: C_11  and  C_4 
REMARK    4  A    between atoms: C_18  and  C_11 
ROOT
ATOM      1  N   UNL d   1     -40.090  14.936  18.493  0.00  0.00    -0.202 N 
ATOM      2  C   UNL d   1     -40.695  15.323  18.095  0.00  0.00     0.218 A 
ATOM      3  C   UNL d   1     -40.159  15.115  19.304  0.00  0.00     0.135 A 
ATOM      4  N   UNL d   1     -41.138  15.742  18.653  0.00  0.00    -0.178 NA
ATOM      5  C   UNL d   1     -40.801  15.608  19.392  0.00  0.00     0.298 A 
ATOM      6  S   UNL d   1     -40.844  15.305  17.275  0.00  0.00    -0.037 SA
ATOM      7  O   UNL d   1     -41.069  15.922  20.118  0.00  0.00    -0.264 OA
ENDROOT
BRANCH   1   8
ATOM      8  S   UNL d   1     -39.554  14.470  18.076  0.00  0.00     0.273 S 
ATOM      9  O   UNL d   1     -40.143  13.894  17.961  0.00  0.00    -0.200 OA
ATOM     10  O   UNL d   1     -38.970  15.040  18.189  0.00  0.00    -0.200 OA
BRANCH   8  11
ATOM     11  C   UNL d   1     -39.017  14.004  17.659  0.00  0.00     0.104 A 
ATOM     12  C   UNL d   1     -38.525  14.346  17.096  0.00  0.00     0.012 A 
ATOM     13  C   UNL d   1     -37.986  13.878  16.676  0.00  0.00     0.001 A 
ATOM     14  C   UNL d   1     -38.575  15.167  16.952  0.00  0.00     0.001 C 
ATOM     15  C   UNL d   1     -37.942  13.070  16.822  0.00  0.00     0.000 A 
ATOM     16  C   UNL d   1     -38.435  12.725  17.387  0.00  0.00     0.001 A 
ATOM     17  C   UNL d   1     -38.974  13.193  17.806  0.00  0.00     0.013 A 
ATOM     18  C   UNL d   1     -38.388  11.905  17.533  0.00  0.00     0.000 C 
ENDBRANCH   8  11
ENDBRANCH   1   8
BRANCH   3  19
ATOM     19  C   UNL d   1     -39.677  14.853  19.920  0.00  0.00     0.023 C 
BRANCH  19  20
ATOM     20  C   UNL d   1     -39.933  14.912  20.700  0.00  0.00     0.002 C 
ATOM     21  C   UNL d   1     -40.432  14.338  21.011  0.00  0.00     0.000 C 
ATOM     22  C   UNL d   1     -39.692  15.540  21.165  0.00  0.00     0.000 C 
ENDBRANCH  19  20
ENDBRANCH   3  19
TORSDOF 4
ENDMDL
