MODEL 1
REMARK VINA RESULT:      -3.3      0.000      0.000
REMARK  7 active torsions:
REMARK  status: ('A' for Active; 'I' for Inactive)
REMARK    1  A    between atoms: C_4  and  C_1 
REMARK    2  A    between atoms: C_6  and  C_3 
REMARK       I    between atoms: N_13  and  C_6 
REMARK    3  A    between atoms: O_18  and  C_8 
REMARK    4  A    between atoms: O_19  and  C_10 
REMARK    5  A    between atoms: C_20  and  N_13 
REMARK    6  A    between atoms: C_15  and  C_22 
REMARK    7  A    between atoms: C_22  and  C_20 
ROOT
ATOM      1  C   UNL d   1      32.861  18.499 -22.989  0.00  0.00     0.302 C 
ATOM      2  O   UNL d   1      33.241  18.180 -22.334  0.00  0.00    -0.263 OA
ATOM      3  N   UNL d   1      32.852  19.312 -23.098  0.00  0.00    -0.205 NA
ENDROOT
BRANCH   1   4
ATOM      4  C   UNL d   1      32.491  18.002 -23.534  0.00  0.00     0.158 A 
ATOM      5  O   UNL d   1      31.728  17.701 -23.478  0.00  0.00    -0.302 OA
ATOM      6  C   UNL d   1      31.591  17.233 -24.144  0.00  0.00     0.101 A 
ATOM      7  C   UNL d   1      32.273  17.245 -24.616  0.00  0.00     0.027 A 
ATOM      8  C   UNL d   1      32.833  17.724 -24.235  0.00  0.00     0.032 A 
BRANCH   6   9
ATOM      9  C   UNL d   1      30.899  16.827 -24.310  0.00  0.00     0.033 A 
ATOM     10  C   UNL d   1      30.878  16.003 -24.234  0.00  0.00     0.060 A 
ATOM     11 CL   UNL d   1      31.550  15.588 -23.992  0.00  0.00    -0.082 Cl
ATOM     12  C   UNL d   1      30.180  15.597 -24.402  0.00  0.00     0.011 A 
ATOM     13  C   UNL d   1      29.505  16.005 -24.644  0.00  0.00     0.001 A 
ATOM     14  C   UNL d   1      29.525  16.822 -24.719  0.00  0.00     0.000 A 
ATOM     15  C   UNL d   1      30.220  17.239 -24.554  0.00  0.00     0.003 A 
ENDBRANCH   6   9
ENDBRANCH   1   4
BRANCH   3  16
ATOM     16  C   UNL d   1      33.223  19.811 -22.553  0.00  0.00     0.102 C 
BRANCH  16  17
ATOM     17  C   UNL d   1      33.241  20.614 -22.677  0.00  0.00     0.021 C 
BRANCH  17  18
ATOM     18  C   UNL d   1      33.199  21.129 -22.033  0.00  0.00     0.004 A 
ATOM     19  C   UNL d   1      33.127  21.945 -22.158  0.00  0.00     0.026 A 
ATOM     20  C   UNL d   1      33.085  22.456 -21.523  0.00  0.00     0.116 A 
ATOM     21  C   UNL d   1      33.115  22.153 -20.750  0.00  0.00     0.116 A 
ATOM     22  C   UNL d   1      33.187  21.342 -20.626  0.00  0.00     0.026 A 
ATOM     23  C   UNL d   1      33.228  20.830 -21.268  0.00  0.00     0.002 A 
BRANCH  20  24
ATOM     24  O   UNL d   1      33.014  23.267 -21.654  0.00  0.00    -0.326 OA
ATOM     25  C   UNL d   1      32.920  23.550 -22.431  0.00  0.00     0.181 C 
ENDBRANCH  20  24
BRANCH  21  26
ATOM     26  O   UNL d   1      33.072  22.681 -20.104  0.00  0.00    -0.326 OA
ATOM     27  C   UNL d   1      33.231  22.393 -19.350  0.00  0.00     0.181 C 
ENDBRANCH  21  26
ENDBRANCH  17  18
ENDBRANCH  16  17
ENDBRANCH   3  16
TORSDOF 7
ENDMDL
MODEL 2
REMARK VINA RESULT:      -3.1      0.721      1.337
REMARK  7 active torsions:
REMARK  status: ('A' for Active; 'I' for Inactive)
REMARK    1  A    between atoms: C_4  and  C_1 
REMARK    2  A    between atoms: C_6  and  C_3 
REMARK       I    between atoms: N_13  and  C_6 
REMARK    3  A    between atoms: O_18  and  C_8 
REMARK    4  A    between atoms: O_19  and  C_10 
REMARK    5  A    between atoms: C_20  and  N_13 
REMARK    6  A    between atoms: C_15  and  C_22 
REMARK    7  A    between atoms: C_22  and  C_20 
ROOT
ATOM      1  C   UNL d   1      32.816  18.683 -23.877  0.00  0.00     0.302 C 
ATOM      2  O   UNL d   1      33.186  19.098 -24.483  0.00  0.00    -0.263 OA
ATOM      3  N   UNL d   1      32.784  19.007 -23.124  0.00  0.00    -0.205 NA
ENDROOT
BRANCH   1   4
ATOM      4  C   UNL d   1      32.479  17.945 -24.028  0.00  0.00     0.158 A 
ATOM      5  O   UNL d   1      31.690  17.739 -23.921  0.00  0.00    -0.302 OA
ATOM      6  C   UNL d   1      31.602  16.949 -24.140  0.00  0.00     0.101 A 
ATOM      7  C   UNL d   1      32.342  16.663 -24.385  0.00  0.00     0.027 A 
ATOM      8  C   UNL d   1      32.887  17.285 -24.314  0.00  0.00     0.032 A 
BRANCH   6   9
ATOM      9  C   UNL d   1      30.905  16.521 -24.120  0.00  0.00     0.033 A 
ATOM     10  C   UNL d   1      30.780  15.967 -23.518  0.00  0.00     0.060 A 
ATOM     11 CL   UNL d   1      31.355  15.844 -22.938  0.00  0.00    -0.082 Cl
ATOM     12  C   UNL d   1      30.076  15.537 -23.500  0.00  0.00     0.011 A 
ATOM     13  C   UNL d   1      29.498  15.656 -24.077  0.00  0.00     0.001 A 
ATOM     14  C   UNL d   1      29.621  16.204 -24.674  0.00  0.00     0.000 A 
ATOM     15  C   UNL d   1      30.323  16.641 -24.701  0.00  0.00     0.003 A 
ENDBRANCH   6   9
ENDBRANCH   1   4
BRANCH   3  16
ATOM     16  C   UNL d   1      33.121  19.746 -22.972  0.00  0.00     0.102 C 
BRANCH  16  17
ATOM     17  C   UNL d   1      33.236  19.996 -22.206  0.00  0.00     0.021 C 
BRANCH  17  18
ATOM     18  C   UNL d   1      33.136  20.792 -22.015  0.00  0.00     0.004 A 
ATOM     19  C   UNL d   1      32.931  21.012 -21.243  0.00  0.00     0.026 A 
ATOM     20  C   UNL d   1      32.831  21.800 -21.053  0.00  0.00     0.116 A 
ATOM     21  C   UNL d   1      32.937  22.380 -21.638  0.00  0.00     0.116 A 
ATOM     22  C   UNL d   1      33.141  22.161 -22.406  0.00  0.00     0.026 A 
ATOM     23  C   UNL d   1      33.240  21.367 -22.594  0.00  0.00     0.002 A 
BRANCH  20  24
ATOM     24  O   UNL d   1      32.627  22.012 -20.283  0.00  0.00    -0.326 OA
ATOM     25  C   UNL d   1      32.896  21.550 -19.645  0.00  0.00     0.181 C 
ENDBRANCH  20  24
BRANCH  21  26
ATOM     26  O   UNL d   1      32.834  23.184 -21.438  0.00  0.00    -0.326 OA
ATOM     27  C   UNL d   1      32.548  23.700 -22.011  0.00  0.00     0.181 C 
ENDBRANCH  21  26
ENDBRANCH  17  18
ENDBRANCH  16  17
ENDBRANCH   3  16
TORSDOF 7
ENDMDL
MODEL 3
REMARK VINA RESULT:      -2.3      0.922      1.188
REMARK  7 active torsions:
REMARK  status: ('A' for Active; 'I' for Inactive)
REMARK    1  A    between atoms: C_4  and  C_1 
REMARK    2  A    between atoms: C_6  and  C_3 
REMARK       I    between atoms: N_13  and  C_6 
REMARK    3  A    between atoms: O_18  and  C_8 
REMARK    4  A    between atoms: O_19  and  C_10 
REMARK    5  A    between atoms: C_20  and  N_13 
REMARK    6  A    between atoms: C_15  and  C_22 
REMARK    7  A    between atoms: C_22  and  C_20 
ROOT
ATOM      1  C   UNL d   1      32.911  19.168 -23.008  0.00  0.00     0.302 C 
ATOM      2  O   UNL d   1      33.239  19.714 -23.528  0.00  0.00    -0.263 OA
ATOM      3  N   UNL d   1      32.783  19.378 -22.226  0.00  0.00    -0.205 NA
ENDROOT
BRANCH   1   4
ATOM      4  C   UNL d   1      32.711  18.413 -23.274  0.00  0.00     0.158 A 
ATOM      5  O   UNL d   1      31.962  18.157 -23.495  0.00  0.00    -0.302 OA
ATOM      6  C   UNL d   1      32.021  17.366 -23.722  0.00  0.00     0.101 A 
ATOM      7  C   UNL d   1      32.812  17.129 -23.642  0.00  0.00     0.027 A 
ATOM      8  C   UNL d   1      33.241  17.783 -23.362  0.00  0.00     0.032 A 
BRANCH   6   9
ATOM      9  C   UNL d   1      31.404  16.895 -23.982  0.00  0.00     0.033 A 
ATOM     10  C   UNL d   1      30.737  17.244 -24.329  0.00  0.00     0.060 A 
ATOM     11 CL   UNL d   1      30.692  18.064 -24.412  0.00  0.00    -0.082 Cl
ATOM     12  C   UNL d   1      30.118  16.767 -24.590  0.00  0.00     0.011 A 
ATOM     13  C   UNL d   1      30.157  15.947 -24.509  0.00  0.00     0.001 A 
ATOM     14  C   UNL d   1      30.816  15.600 -24.166  0.00  0.00     0.000 A 
ATOM     15  C   UNL d   1      31.444  16.069 -23.901  0.00  0.00     0.003 A 
ENDBRANCH   6   9
ENDBRANCH   1   4
BRANCH   3  16
ATOM     16  C   UNL d   1      32.982  20.134 -21.957  0.00  0.00     0.102 C 
BRANCH  16  17
ATOM     17  C   UNL d   1      32.932  20.316 -21.166  0.00  0.00     0.021 C 
BRANCH  17  18
ATOM     18  C   UNL d   1      32.892  21.106 -20.929  0.00  0.00     0.004 A 
ATOM     19  C   UNL d   1      32.508  21.663 -21.406  0.00  0.00     0.026 A 
ATOM     20  C   UNL d   1      32.468  22.445 -21.173  0.00  0.00     0.116 A 
ATOM     21  C   UNL d   1      32.814  22.678 -20.455  0.00  0.00     0.116 A 
ATOM     22  C   UNL d   1      33.196  22.122 -19.981  0.00  0.00     0.026 A 
ATOM     23  C   UNL d   1      33.235  21.337 -20.218  0.00  0.00     0.002 A 
BRANCH  20  24
ATOM     24  O   UNL d   1      32.084  22.996 -21.652  0.00  0.00    -0.326 OA
ATOM     25  C   UNL d   1      32.444  23.244 -22.360  0.00  0.00     0.181 C 
ENDBRANCH  20  24
BRANCH  21  26
ATOM     26  O   UNL d   1      32.769  23.478 -20.221  0.00  0.00    -0.326 OA
ATOM     27  C   UNL d   1      32.878  23.664 -19.427  0.00  0.00     0.181 C 
ENDBRANCH  21  26
ENDBRANCH  17  18
ENDBRANCH  16  17
ENDBRANCH   3  16
TORSDOF 7
ENDMDL
MODEL 4
REMARK VINA RESULT:      -1.7      1.866      6.234
REMARK  7 active torsions:
REMARK  status: ('A' for Active; 'I' for Inactive)
REMARK    1  A    between atoms: C_4  and  C_1 
REMARK    2  A    between atoms: C_6  and  C_3 
REMARK       I    between atoms: N_13  and  C_6 
REMARK    3  A    between atoms: O_18  and  C_8 
REMARK    4  A    between atoms: O_19  and  C_10 
REMARK    5  A    between atoms: C_20  and  N_13 
REMARK    6  A    between atoms: C_15  and  C_22 
REMARK    7  A    between atoms: C_22  and  C_20 
ROOT
ATOM      1  C   UNL d   1      32.895  19.899 -22.773  0.00  0.00     0.302 C 
ATOM      2  O   UNL d   1      32.968  20.270 -23.503  0.00  0.00    -0.263 OA
ATOM      3  N   UNL d   1      32.785  19.087 -22.741  0.00  0.00    -0.205 NA
ENDROOT
BRANCH   1   4
ATOM      4  C   UNL d   1      32.933  20.341 -22.078  0.00  0.00     0.158 A 
ATOM      5  O   UNL d   1      32.884  21.160 -22.019  0.00  0.00    -0.302 OA
ATOM      6  C   UNL d   1      32.948  21.361 -21.222  0.00  0.00     0.101 A 
ATOM      7  C   UNL d   1      33.038  20.663 -20.782  0.00  0.00     0.027 A 
ATOM      8  C   UNL d   1      33.029  20.028 -21.317  0.00  0.00     0.032 A 
BRANCH   6   9
ATOM      9  C   UNL d   1      32.927  22.120 -20.916  0.00  0.00     0.033 A 
ATOM     10  C   UNL d   1      33.045  22.241 -20.105  0.00  0.00     0.060 A 
ATOM     11 CL   UNL d   1      33.185  21.599 -19.604  0.00  0.00    -0.082 Cl
ATOM     12  C   UNL d   1      33.023  23.007 -19.800  0.00  0.00     0.011 A 
ATOM     13  C   UNL d   1      32.884  23.651 -20.296  0.00  0.00     0.001 A 
ATOM     14  C   UNL d   1      32.767  23.533 -21.099  0.00  0.00     0.000 A 
ATOM     15  C   UNL d   1      32.787  22.770 -21.415  0.00  0.00     0.003 A 
ENDBRANCH   6   9
ENDBRANCH   1   4
BRANCH   3  16
ATOM     16  C   UNL d   1      32.746  18.641 -23.436  0.00  0.00     0.102 C 
BRANCH  16  17
ATOM     17  C   UNL d   1      32.760  17.829 -23.405  0.00  0.00     0.021 C 
BRANCH  17  18
ATOM     18  C   UNL d   1      32.127  17.396 -23.711  0.00  0.00     0.004 A 
ATOM     19  C   UNL d   1      31.798  16.775 -23.273  0.00  0.00     0.026 A 
ATOM     20  C   UNL d   1      31.172  16.346 -23.574  0.00  0.00     0.116 A 
ATOM     21  C   UNL d   1      30.866  16.537 -24.323  0.00  0.00     0.116 A 
ATOM     22  C   UNL d   1      31.193  17.156 -24.758  0.00  0.00     0.026 A 
ATOM     23  C   UNL d   1      31.823  17.585 -24.452  0.00  0.00     0.002 A 
BRANCH  20  24
ATOM     24  O   UNL d   1      30.849  15.729 -23.134  0.00  0.00    -0.326 OA
ATOM     25  C   UNL d   1      31.251  15.453 -22.459  0.00  0.00     0.181 C 
ENDBRANCH  20  24
BRANCH  21  26
ATOM     26  O   UNL d   1      30.225  16.095 -24.625  0.00  0.00    -0.326 OA
ATOM     27  C   UNL d   1      29.670  16.478 -25.097  0.00  0.00     0.181 C 
ENDBRANCH  21  26
ENDBRANCH  17  18
ENDBRANCH  16  17
ENDBRANCH   3  16
TORSDOF 7
ENDMDL
MODEL 5
REMARK VINA RESULT:      -1.3      1.773      5.894
REMARK  7 active torsions:
REMARK  status: ('A' for Active; 'I' for Inactive)
REMARK    1  A    between atoms: C_4  and  C_1 
REMARK    2  A    between atoms: C_6  and  C_3 
REMARK       I    between atoms: N_13  and  C_6 
REMARK    3  A    between atoms: O_18  and  C_8 
REMARK    4  A    between atoms: O_19  and  C_10 
REMARK    5  A    between atoms: C_20  and  N_13 
REMARK    6  A    between atoms: C_15  and  C_22 
REMARK    7  A    between atoms: C_22  and  C_20 
ROOT
ATOM      1  C   UNL d   1      32.929  19.344 -23.142  0.00  0.00     0.302 C 
ATOM      2  O   UNL d   1      33.164  19.620 -23.880  0.00  0.00    -0.263 OA
ATOM      3  N   UNL d   1      32.662  18.573 -23.064  0.00  0.00    -0.205 NA
ENDROOT
BRANCH   1   4
ATOM      4  C   UNL d   1      32.962  19.842 -22.484  0.00  0.00     0.158 A 
ATOM      5  O   UNL d   1      32.736  20.632 -22.460  0.00  0.00    -0.302 OA
ATOM      6  C   UNL d   1      32.864  20.909 -21.694  0.00  0.00     0.101 A 
ATOM      7  C   UNL d   1      33.172  20.287 -21.239  0.00  0.00     0.027 A 
ATOM      8  C   UNL d   1      33.232  19.623 -21.733  0.00  0.00     0.032 A 
BRANCH   6   9
ATOM      9  C   UNL d   1      32.713  21.668 -21.428  0.00  0.00     0.033 A 
ATOM     10  C   UNL d   1      32.050  21.814 -20.953  0.00  0.00     0.060 A 
ATOM     11 CL   UNL d   1      31.540  21.197 -20.748  0.00  0.00    -0.082 Cl
ATOM     12  C   UNL d   1      31.901  22.580 -20.687  0.00  0.00     0.011 A 
ATOM     13  C   UNL d   1      32.407  23.200 -20.889  0.00  0.00     0.001 A 
ATOM     14  C   UNL d   1      33.063  23.057 -21.358  0.00  0.00     0.000 A 
ATOM     15  C   UNL d   1      33.222  22.293 -21.631  0.00  0.00     0.003 A 
ENDBRANCH   6   9
ENDBRANCH   1   4
BRANCH   3  16
ATOM     16  C   UNL d   1      32.628  18.072 -23.721  0.00  0.00     0.102 C 
BRANCH  16  17
ATOM     17  C   UNL d   1      32.603  17.266 -23.623  0.00  0.00     0.021 C 
BRANCH  17  18
ATOM     18  C   UNL d   1      31.884  16.867 -23.692  0.00  0.00     0.004 A 
ATOM     19  C   UNL d   1      31.256  17.211 -24.109  0.00  0.00     0.026 A 
ATOM     20  C   UNL d   1      30.544  16.817 -24.178  0.00  0.00     0.116 A 
ATOM     21  C   UNL d   1      30.452  16.070 -23.827  0.00  0.00     0.116 A 
ATOM     22  C   UNL d   1      31.077  15.728 -23.412  0.00  0.00     0.026 A 
ATOM     23  C   UNL d   1      31.792  16.127 -23.345  0.00  0.00     0.002 A 
BRANCH  20  24
ATOM     24  O   UNL d   1      29.923  17.165 -24.594  0.00  0.00    -0.326 OA
ATOM     25  C   UNL d   1      30.053  17.877 -25.005  0.00  0.00     0.181 C 
ENDBRANCH  20  24
BRANCH  21  26
ATOM     26  O   UNL d   1      29.722  15.672 -23.901  0.00  0.00    -0.326 OA
ATOM     27  C   UNL d   1      29.286  15.519 -23.220  0.00  0.00     0.181 C 
ENDBRANCH  21  26
ENDBRANCH  17  18
ENDBRANCH  16  17
ENDBRANCH   3  16
TORSDOF 7
ENDMDL
