MODEL 1
REMARK VINA RESULT:       8.8      0.000      0.000
REMARK  3 active torsions:
REMARK  status: ('A' for Active; 'I' for Inactive)
REMARK    1  A    between atoms: N_2  and  N_1 
REMARK    2  A    between atoms: C_3  and  N_1 
REMARK    3  A    between atoms: C_4  and  N_2 
ROOT
ATOM      1  N   UNL d   1      46.071 -16.859  43.901  0.00  0.00    -0.148 NA
ENDROOT
BRANCH   1   2
ATOM      2  N   UNL d   1      45.892 -16.546  44.636  0.00  0.00    -0.148 NA
BRANCH   2   3
ATOM      3  C   UNL d   1      45.688 -15.726  44.688  0.00  0.00     0.103 A 
ATOM      4  C   UNL d   1      46.252 -15.151  44.524  0.00  0.00     0.021 A 
ATOM      5  C   UNL d   1      46.056 -14.351  44.574  0.00  0.00     0.002 A 
ATOM      6  C   UNL d   1      45.284 -14.126  44.792  0.00  0.00     0.000 A 
ATOM      7  C   UNL d   1      44.726 -14.706  44.955  0.00  0.00     0.002 A 
ATOM      8  C   UNL d   1      44.916 -15.501  44.906  0.00  0.00     0.021 A 
ENDBRANCH   2   3
ENDBRANCH   1   2
BRANCH   1   9
ATOM      9  C   UNL d   1      46.215 -17.672  43.846  0.00  0.00     0.103 A 
ATOM     10  C   UNL d   1      46.282 -18.032  43.111  0.00  0.00     0.022 A 
ATOM     11  C   UNL d   1      46.427 -18.851  43.069  0.00  0.00     0.022 A 
ATOM     12  C   UNL d   1      46.501 -19.285  43.734  0.00  0.00     0.103 A 
ATOM     13  C   UNL d   1      46.435 -18.929  44.483  0.00  0.00     0.022 A 
ATOM     14  N   UNL d   1      46.647 -20.107  43.673  0.00  0.00    -0.148 N 
ATOM     15  C   UNL d   1      46.292 -18.123  44.537  0.00  0.00     0.022 A 
ENDBRANCH   1   9
TORSDOF 3
ENDMDL
MODEL 2
REMARK VINA RESULT:       8.8      0.850      4.050
REMARK  3 active torsions:
REMARK  status: ('A' for Active; 'I' for Inactive)
REMARK    1  A    between atoms: N_2  and  N_1 
REMARK    2  A    between atoms: C_3  and  N_1 
REMARK    3  A    between atoms: C_4  and  N_2 
ROOT
ATOM      1  N   UNL d   1      45.851 -16.596  44.593  0.00  0.00    -0.148 NA
ENDROOT
BRANCH   1   2
ATOM      2  N   UNL d   1      46.010 -16.931  43.862  0.00  0.00    -0.148 NA
BRANCH   2   3
ATOM      3  C   UNL d   1      46.211 -17.752  43.827  0.00  0.00     0.103 A 
ATOM      4  C   UNL d   1      46.273 -18.190  44.520  0.00  0.00     0.021 A 
ATOM      5  C   UNL d   1      46.469 -18.991  44.490  0.00  0.00     0.002 A 
ATOM      6  C   UNL d   1      46.605 -19.356  43.754  0.00  0.00     0.000 A 
ATOM      7  C   UNL d   1      46.541 -18.913  43.064  0.00  0.00     0.002 A 
ATOM      8  C   UNL d   1      46.347 -18.118  43.091  0.00  0.00     0.021 A 
ENDBRANCH   2   3
ENDBRANCH   1   2
BRANCH   1   9
ATOM      9  C   UNL d   1      45.703 -15.784  44.628  0.00  0.00     0.103 A 
ATOM     10  C   UNL d   1      46.271 -15.247  44.375  0.00  0.00     0.022 A 
ATOM     11  C   UNL d   1      46.109 -14.431  44.415  0.00  0.00     0.022 A 
ATOM     12  C   UNL d   1      45.411 -14.169  44.696  0.00  0.00     0.103 A 
ATOM     13  C   UNL d   1      44.829 -14.705  44.955  0.00  0.00     0.022 A 
ATOM     14  N   UNL d   1      45.266 -13.346  44.730  0.00  0.00    -0.148 N 
ATOM     15  C   UNL d   1      44.977 -15.511  44.920  0.00  0.00     0.022 A 
ENDBRANCH   1   9
TORSDOF 3
ENDMDL
