MODEL 1
REMARK VINA RESULT:      -2.4      0.000      0.000
REMARK  7 active torsions:
REMARK  status: ('A' for Active; 'I' for Inactive)
REMARK    1  A    between atoms: N_2  and  S_1 
REMARK    2  A    between atoms: C_5  and  S_1 
REMARK    3  A    between atoms: C_3  and  N_2 
REMARK    4  A    between atoms: C_4  and  C_3 
REMARK    5  A    between atoms: C_8  and  C_3 
REMARK    6  A    between atoms: C_17  and  C_8 
REMARK    7  A    between atoms: C_9  and  C_10 
ROOT
ATOM      1  S   UNL d   1      31.077  15.936 -24.527  0.00  0.00     0.285 S 
ATOM      2  O   UNL d   1      30.738  15.455 -25.097  0.00  0.00    -0.198 OA
ATOM      3  O   UNL d   1      31.836  15.740 -24.814  0.00  0.00    -0.198 OA
ENDROOT
BRANCH   1   4
ATOM      4  N   UNL d   1      31.415  16.417 -23.959  0.00  0.00    -0.152 NA
BRANCH   4   5
ATOM      5  C   UNL d   1      32.220  16.423 -23.853  0.00  0.00     0.158 C 
BRANCH   5   6
ATOM      6  C   UNL d   1      32.579  15.858 -23.382  0.00  0.00     0.230 C 
ATOM      7  O   UNL d   1      32.287  15.695 -22.643  0.00  0.00    -0.643 OA
ATOM      8  O   UNL d   1      33.241  15.453 -23.661  0.00  0.00    -0.643 OA
ENDBRANCH   5   6
BRANCH   5   9
ATOM      9  C   UNL d   1      32.678  17.001 -24.221  0.00  0.00     0.026 C 
BRANCH   9  10
ATOM     10  C   UNL d   1      32.769  17.745 -23.876  0.00  0.00     0.002 A 
ATOM     11  C   UNL d   1      33.023  17.817 -23.090  0.00  0.00     0.000 A 
ATOM     12  C   UNL d   1      33.113  18.559 -22.748  0.00  0.00     0.000 A 
ATOM     13  C   UNL d   1      32.950  19.236 -23.187  0.00  0.00     0.000 A 
ATOM     14  C   UNL d   1      32.690  19.175 -23.990  0.00  0.00     0.000 A 
ATOM     15  C   UNL d   1      32.607  18.418 -24.313  0.00  0.00     0.000 A 
ENDBRANCH   9  10
ENDBRANCH   5   9
ENDBRANCH   4   5
ENDBRANCH   1   4
BRANCH   1  16
ATOM     16  C   UNL d   1      30.332  16.129 -24.247  0.00  0.00     0.105 A 
ATOM     17  C   UNL d   1      29.925  16.769 -24.571  0.00  0.00     0.013 A 
ATOM     18  C   UNL d   1      29.180  16.961 -24.290  0.00  0.00    -0.004 A 
ATOM     19  C   UNL d   1      28.843  16.514 -23.685  0.00  0.00    -0.023 A 
ATOM     20  C   UNL d   1      29.251  15.861 -23.350  0.00  0.00    -0.004 A 
ATOM     21  C   UNL d   1      29.995  15.682 -23.642  0.00  0.00     0.013 A 
BRANCH  19  22
ATOM     22  C   UNL d   1      28.090  16.728 -23.419  0.00  0.00     0.019 C 
ATOM     23  C   UNL d   1      27.874  15.938 -23.434  0.00  0.00     0.004 C 
ATOM     24  C   UNL d   1      27.350  16.934 -23.157  0.00  0.00     0.004 C 
ATOM     25  C   UNL d   1      28.316  17.514 -23.407  0.00  0.00     0.004 C 
ENDBRANCH  19  22
ENDBRANCH   1  16
TORSDOF 7
ENDMDL
MODEL 2
REMARK VINA RESULT:      -2.4      1.185      4.068
REMARK  7 active torsions:
REMARK  status: ('A' for Active; 'I' for Inactive)
REMARK    1  A    between atoms: N_2  and  S_1 
REMARK    2  A    between atoms: C_5  and  S_1 
REMARK    3  A    between atoms: C_3  and  N_2 
REMARK    4  A    between atoms: C_4  and  C_3 
REMARK    5  A    between atoms: C_8  and  C_3 
REMARK    6  A    between atoms: C_17  and  C_8 
REMARK    7  A    between atoms: C_9  and  C_10 
ROOT
ATOM      1  S   UNL d   1      32.693  17.824 -24.470  0.00  0.00     0.285 S 
ATOM      2  O   UNL d   1      33.241  18.235 -24.920  0.00  0.00    -0.198 OA
ATOM      3  O   UNL d   1      32.586  17.282 -25.096  0.00  0.00    -0.198 OA
ENDROOT
BRANCH   1   4
ATOM      4  N   UNL d   1      32.147  17.413 -24.021  0.00  0.00    -0.152 NA
BRANCH   4   5
ATOM      5  C   UNL d   1      31.800  16.740 -24.311  0.00  0.00     0.158 C 
BRANCH   5   6
ATOM      6  C   UNL d   1      32.126  16.006 -24.153  0.00  0.00     0.230 C 
ATOM      7  O   UNL d   1      32.194  15.744 -23.389  0.00  0.00    -0.643 OA
ATOM      8  O   UNL d   1      32.387  15.531 -24.775  0.00  0.00    -0.643 OA
ENDBRANCH   5   6
BRANCH   5   9
ATOM      9  C   UNL d   1      31.116  16.794 -24.769  0.00  0.00     0.026 C 
BRANCH   9  10
ATOM     10  C   UNL d   1      30.372  16.748 -24.414  0.00  0.00     0.002 A 
ATOM     11  C   UNL d   1      29.791  17.317 -24.577  0.00  0.00     0.000 A 
ATOM     12  C   UNL d   1      29.051  17.270 -24.224  0.00  0.00     0.000 A 
ATOM     13  C   UNL d   1      28.883  16.654 -23.704  0.00  0.00     0.000 A 
ATOM     14  C   UNL d   1      29.468  16.067 -23.529  0.00  0.00     0.000 A 
ATOM     15  C   UNL d   1      30.205  16.136 -23.898  0.00  0.00     0.000 A 
ENDBRANCH   9  10
ENDBRANCH   5   9
ENDBRANCH   4   5
ENDBRANCH   1   4
BRANCH   1  16
ATOM     16  C   UNL d   1      32.799  18.355 -23.856  0.00  0.00     0.105 A 
ATOM     17  C   UNL d   1      33.126  18.098 -23.144  0.00  0.00     0.013 A 
ATOM     18  C   UNL d   1      33.231  18.629 -22.530  0.00  0.00    -0.004 A 
ATOM     19  C   UNL d   1      33.010  19.418 -22.628  0.00  0.00    -0.023 A 
ATOM     20  C   UNL d   1      32.676  19.687 -23.350  0.00  0.00    -0.004 A 
ATOM     21  C   UNL d   1      32.577  19.143 -23.955  0.00  0.00     0.013 A 
BRANCH  19  22
ATOM     22  C   UNL d   1      33.126  19.935 -21.994  0.00  0.00     0.019 C 
ATOM     23  C   UNL d   1      33.023  20.566 -22.506  0.00  0.00     0.004 C 
ATOM     24  C   UNL d   1      33.240  20.446 -21.374  0.00  0.00     0.004 C 
ATOM     25  C   UNL d   1      33.227  19.297 -21.491  0.00  0.00     0.004 C 
ENDBRANCH  19  22
ENDBRANCH   1  16
TORSDOF 7
ENDMDL
