MODEL 1
REMARK VINA RESULT:      56.9      0.000      0.000
REMARK  7 active torsions:
REMARK  status: ('A' for Active; 'I' for Inactive)
REMARK    1  A    between atoms: C_21  and  C_3 
REMARK    2  A    between atoms: S_17  and  C_5 
REMARK    3  A    between atoms: C_11  and  C_16 
REMARK       I    between atoms: N_14  and  C_11 
REMARK    4  A    between atoms: C_19  and  N_14 
REMARK    5  A    between atoms: C_16  and  C_20 
REMARK    6  A    between atoms: C_20  and  S_17 
REMARK    7  A    between atoms: O_27  and  C_22 
ROOT
ATOM      1  C   UNL d   1     -50.626  25.261  33.307  0.00  0.00     0.092 A 
ATOM      2  C   UNL d   1     -51.936  24.685  33.308  0.00  0.00     0.057 A 
ATOM      3  C   UNL d   1     -51.119  24.595  33.308  0.00  0.00     0.016 A 
ATOM      4  N   UNL d   1     -51.782  26.103  33.306  0.00  0.00    -0.239 NA
ATOM      5  C   UNL d   1     -50.958  26.015  33.306  0.00  0.00     0.120 A 
ATOM      6  C   UNL d   1     -52.267  25.439  33.307  0.00  0.00     0.081 A 
ATOM      7  C   UNL d   1     -52.421  24.022  33.309  0.00  0.00     0.193 A 
ATOM      8  C   UNL d   1     -49.803  25.169  33.307  0.00  0.00     0.103 C 
ATOM      9  N   UNL d   1     -48.974  25.070  33.307  0.00  0.00    -0.191 NA
ATOM     10  C   UNL d   1     -53.573  24.865  33.308  0.00  0.00     0.042 A 
ATOM     11  C   UNL d   1     -53.241  24.111  33.309  0.00  0.00     0.019 A 
ATOM     12  C   UNL d   1     -53.084  25.530  33.307  0.00  0.00    -0.003 A 
ATOM     13  O   UNL d   1     -52.089  23.268  33.310  0.00  0.00    -0.287 OA
ATOM     14  C   UNL d   1     -54.147  25.467  33.307  0.00  0.00     0.009 C 
ATOM     15  C   UNL d   1     -54.069  24.205  33.309  0.00  0.00     0.009 C 
ENDROOT
BRANCH   3  16
ATOM     16  C   UNL d   1     -50.787  23.841  33.309  0.00  0.00     0.001 C 
ATOM     17  C   UNL d   1     -51.248  23.188  33.504  0.00  0.00     0.000 C 
ENDBRANCH   3  16
BRANCH   5  18
ATOM     18  S   UNL d   1     -50.468  26.681  33.306  0.00  0.00    -0.067 SA
BRANCH  18  19
ATOM     19  C   UNL d   1     -50.396  27.136  33.988  0.00  0.00     0.042 C 
BRANCH  19  20
ATOM     20  C   UNL d   1     -49.690  27.121  34.423  0.00  0.00     0.070 C 
BRANCH  20  21
ATOM     21  C   UNL d   1     -49.369  27.833  34.709  0.00  0.00     0.280 C 
ATOM     22  N   UNL d   1     -48.608  27.835  35.039  0.00  0.00    -0.208 NA
ATOM     23  O   UNL d   1     -49.801  28.532  34.665  0.00  0.00    -0.265 OA
BRANCH  22  24
ATOM     24  C   UNL d   1     -48.287  28.546  35.324  0.00  0.00     0.085 A 
ATOM     25  C   UNL d   1     -47.928  29.078  34.808  0.00  0.00     0.021 A 
ATOM     26  C   UNL d   1     -47.612  29.779  35.098  0.00  0.00     0.026 A 
ATOM     27  C   UNL d   1     -47.649  29.962  35.904  0.00  0.00     0.094 A 
ATOM     28  C   UNL d   1     -48.008  29.430  36.420  0.00  0.00     0.026 A 
ATOM     29  C   UNL d   1     -48.329  28.718  36.135  0.00  0.00     0.021 A 
BRANCH  27  30
ATOM     30  O   UNL d   1     -47.325  30.679  36.195  0.00  0.00    -0.328 OA
ATOM     31  C   UNL d   1     -46.589  30.942  35.919  0.00  0.00     0.181 C 
ENDBRANCH  27  30
ENDBRANCH  22  24
ENDBRANCH  20  21
ENDBRANCH  19  20
ENDBRANCH  18  19
ENDBRANCH   5  18
TORSDOF 7
ENDMDL
