MODEL 1
REMARK VINA RESULT:      -8.0      0.000      0.000
REMARK  1 active torsions:
REMARK  status: ('A' for Active; 'I' for Inactive)
REMARK    1  A    between atoms: C_11  and  C_4 
ROOT
ATOM      1  O   UNL d   1      52.816  31.556  52.797  0.00  0.00    -0.304 OA
ATOM      2  C   UNL d   1      53.626  31.780  53.841  0.00  0.00     0.025 A 
ATOM      3  C   UNL d   1      53.524  30.959  53.759  0.00  0.00     0.030 A 
ATOM      4  C   UNL d   1      53.026  30.822  53.116  0.00  0.00     0.142 A 
ATOM      5  C   UNL d   1      53.185  32.140  53.244  0.00  0.00     0.100 A 
ATOM      6  C   UNL d   1      54.054  32.225  54.373  0.00  0.00     0.009 A 
ATOM      7  C   UNL d   1      53.176  32.961  53.181  0.00  0.00     0.025 A 
ATOM      8  C   UNL d   1      54.052  33.053  54.319  0.00  0.00     0.035 A 
ATOM      9  C   UNL d   1      53.610  33.420  53.720  0.00  0.00     0.009 A 
ATOM     10 BR   UNL d   1      54.481  33.510  54.852  0.00  0.00    -0.049 Br
ENDROOT
BRANCH   4  11
ATOM     11  C   UNL d   1      52.779  30.086  52.840  0.00  0.00     0.259 C 
ATOM     12  O   UNL d   1      52.463  29.539  53.358  0.00  0.00    -0.281 OA
ENDBRANCH   4  11
TORSDOF 1
ENDMDL
MODEL 2
REMARK VINA RESULT:      -7.9      1.882      2.894
REMARK  1 active torsions:
REMARK  status: ('A' for Active; 'I' for Inactive)
REMARK    1  A    between atoms: C_11  and  C_4 
ROOT
ATOM      1  O   UNL d   1      53.551  33.558  54.094  0.00  0.00    -0.304 OA
ATOM      2  C   UNL d   1      53.751  32.233  54.108  0.00  0.00     0.025 A 
ATOM      3  C   UNL d   1      54.235  32.578  54.688  0.00  0.00     0.030 A 
ATOM      4  C   UNL d   1      54.112  33.394  54.680  0.00  0.00     0.142 A 
ATOM      5  C   UNL d   1      53.332  32.846  53.746  0.00  0.00     0.100 A 
ATOM      6  C   UNL d   1      53.646  31.460  53.874  0.00  0.00     0.009 A 
ATOM      7  C   UNL d   1      52.801  32.676  53.140  0.00  0.00     0.025 A 
ATOM      8  C   UNL d   1      53.113  31.277  53.265  0.00  0.00     0.035 A 
ATOM      9  C   UNL d   1      52.690  31.889  52.898  0.00  0.00     0.009 A 
ATOM     10 BR   UNL d   1      53.002  30.498  53.024  0.00  0.00    -0.049 Br
ENDROOT
BRANCH   4  11
ATOM     11  C   UNL d   1      54.481  33.947  55.167  0.00  0.00     0.259 C 
ATOM     12  O   UNL d   1      55.293  33.940  55.251  0.00  0.00    -0.281 OA
ENDBRANCH   4  11
TORSDOF 1
ENDMDL
MODEL 3
REMARK VINA RESULT:      -7.6      2.321      3.568
REMARK  1 active torsions:
REMARK  status: ('A' for Active; 'I' for Inactive)
REMARK    1  A    between atoms: C_11  and  C_4 
ROOT
ATOM      1  O   UNL d   1      53.577  34.562  55.024  0.00  0.00    -0.304 OA
ATOM      2  C   UNL d   1      53.231  33.679  54.077  0.00  0.00     0.025 A 
ATOM      3  C   UNL d   1      52.834  34.394  53.928  0.00  0.00     0.030 A 
ATOM      4  C   UNL d   1      53.047  34.937  54.511  0.00  0.00     0.142 A 
ATOM      5  C   UNL d   1      53.687  33.793  54.756  0.00  0.00     0.100 A 
ATOM      6  C   UNL d   1      53.230  32.964  53.688  0.00  0.00     0.009 A 
ATOM      7  C   UNL d   1      54.149  33.175  55.046  0.00  0.00     0.025 A 
ATOM      8  C   UNL d   1      53.691  32.335  53.972  0.00  0.00     0.035 A 
ATOM      9  C   UNL d   1      54.152  32.443  54.653  0.00  0.00     0.009 A 
ATOM     10 BR   UNL d   1      53.696  31.609  53.584  0.00  0.00    -0.049 Br
ENDROOT
BRANCH   4  11
ATOM     11  C   UNL d   1      52.781  35.715  54.572  0.00  0.00     0.259 C 
ATOM     12  O   UNL d   1      53.316  36.332  54.564  0.00  0.00    -0.281 OA
ENDBRANCH   4  11
TORSDOF 1
ENDMDL
MODEL 4
REMARK VINA RESULT:      -7.5      2.035      3.089
REMARK  1 active torsions:
REMARK  status: ('A' for Active; 'I' for Inactive)
REMARK    1  A    between atoms: C_11  and  C_4 
ROOT
ATOM      1  O   UNL d   1      54.032  32.776  54.285  0.00  0.00    -0.304 OA
ATOM      2  C   UNL d   1      53.122  33.737  54.075  0.00  0.00     0.025 A 
ATOM      3  C   UNL d   1      53.640  33.992  54.672  0.00  0.00     0.030 A 
ATOM      4  C   UNL d   1      54.201  33.401  54.801  0.00  0.00     0.142 A 
ATOM      5  C   UNL d   1      53.372  32.986  53.842  0.00  0.00     0.100 A 
ATOM      6  C   UNL d   1      52.475  34.089  53.728  0.00  0.00     0.009 A 
ATOM      7  C   UNL d   1      52.962  32.584  53.251  0.00  0.00     0.025 A 
ATOM      8  C   UNL d   1      52.055  33.694  53.132  0.00  0.00     0.035 A 
ATOM      9  C   UNL d   1      52.301  32.938  52.894  0.00  0.00     0.009 A 
ATOM     10 BR   UNL d   1      51.400  34.042  52.777  0.00  0.00    -0.049 Br
ENDROOT
BRANCH   4  11
ATOM     11  C   UNL d   1      54.818  33.426  55.347  0.00  0.00     0.259 C 
ATOM     12  O   UNL d   1      55.359  34.038  55.323  0.00  0.00    -0.281 OA
ENDBRANCH   4  11
TORSDOF 1
ENDMDL
MODEL 5
REMARK VINA RESULT:      -7.5      1.548      2.537
REMARK  1 active torsions:
REMARK  status: ('A' for Active; 'I' for Inactive)
REMARK    1  A    between atoms: C_11  and  C_4 
ROOT
ATOM      1  O   UNL d   1      52.356  33.062  52.850  0.00  0.00    -0.304 OA
ATOM      2  C   UNL d   1      53.008  33.752  53.796  0.00  0.00     0.025 A 
ATOM      3  C   UNL d   1      52.408  34.235  53.485  0.00  0.00     0.030 A 
ATOM      4  C   UNL d   1      52.007  33.810  52.903  0.00  0.00     0.142 A 
ATOM      5  C   UNL d   1      52.968  33.030  53.398  0.00  0.00     0.100 A 
ATOM      6  C   UNL d   1      53.566  33.881  54.375  0.00  0.00     0.009 A 
ATOM      7  C   UNL d   1      53.500  32.430  53.587  0.00  0.00     0.025 A 
ATOM      8  C   UNL d   1      54.106  33.284  54.573  0.00  0.00     0.035 A 
ATOM      9  C   UNL d   1      54.071  32.556  54.176  0.00  0.00     0.009 A 
ATOM     10 BR   UNL d   1      54.673  33.406  55.157  0.00  0.00    -0.049 Br
ENDROOT
BRANCH   4  11
ATOM     11  C   UNL d   1      51.371  34.082  52.453  0.00  0.00     0.259 C 
ATOM     12  O   UNL d   1      50.619  34.092  52.773  0.00  0.00    -0.281 OA
ENDBRANCH   4  11
TORSDOF 1
ENDMDL
