MODEL 1
REMARK VINA RESULT:      38.2      0.000      0.000
REMARK  5 active torsions:
REMARK  status: ('A' for Active; 'I' for Inactive)
REMARK    1  A    between atoms: N_15  and  C_6 
REMARK    2  A    between atoms: N_14  and  C_18 
REMARK    3  A    between atoms: C_24  and  N_15 
REMARK    4  A    between atoms: C_18  and  C_19 
REMARK    5  A    between atoms: C_19  and  C_24 
ROOT
ATOM      1  N   UNL d   1      46.312 -18.148  41.205  0.00  0.00    -0.183 N 
ATOM      2  C   UNL d   1      46.411 -18.836  41.649  0.00  0.00     0.169 A 
ATOM      3  C   UNL d   1      46.401 -18.811  42.462  0.00  0.00     0.073 A 
ATOM      4  C   UNL d   1      46.292 -18.093  42.828  0.00  0.00     0.185 A 
ATOM      5  N   UNL d   1      46.192 -17.404  42.384  0.00  0.00    -0.142 NA
ATOM      6  C   UNL d   1      46.324 -18.194  40.394  0.00  0.00     0.218 A 
ATOM      7  N   UNL d   1      46.520 -19.552  41.270  0.00  0.00    -0.226 NA
ATOM      8  C   UNL d   1      46.499 -19.492  42.901  0.00  0.00     0.007 A 
ATOM      9  N   UNL d   1      46.279 -18.050  43.651  0.00  0.00    -0.225 NA
ATOM     10  C   UNL d   1      46.432 -18.899  40.014  0.00  0.00     0.071 A 
ATOM     11  C   UNL d   1      46.489 -19.466  43.714  0.00  0.00     0.019 A 
ATOM     12  C   UNL d   1      46.531 -19.587  40.458  0.00  0.00     0.087 A 
ATOM     13  C   UNL d   1      46.378 -18.738  44.095  0.00  0.00     0.083 A 
ATOM     14  C   UNL d   1      46.608 -20.209  42.519  0.00  0.00     0.000 C 
ATOM     15  C   UNL d   1      46.644 -20.329  40.062  0.00  0.00     0.021 C 
ATOM     16  C   UNL d   1      46.367 -18.705  44.904  0.00  0.00     0.021 C 
ENDROOT
BRANCH   6  17
ATOM     17  N   UNL d   1      46.221 -17.478  39.943  0.00  0.00    -0.380 NA
BRANCH  17  18
ATOM     18  C   UNL d   1      46.188 -16.815  39.426  0.00  0.00     0.164 C 
BRANCH  18  19
ATOM     19  C   UNL d   1      45.526 -16.715  38.918  0.00  0.00     0.054 C 
BRANCH  19  20
ATOM     20  C   UNL d   1      45.642 -16.713  38.067  0.00  0.00     0.083 C 
BRANCH  20  21
ATOM     21  N   UNL d   1      45.145 -16.243  37.569  0.00  0.00    -0.299 N 
ATOM     22  C   UNL d   1      45.491 -15.626  37.090  0.00  0.00     0.107 A 
ATOM     23  C   UNL d   1      44.998 -15.149  36.587  0.00  0.00     0.142 A 
ATOM     24  O   UNL d   1      44.159 -15.290  36.563  0.00  0.00    -0.300 OA
ATOM     25  C   UNL d   1      43.819 -15.899  37.038  0.00  0.00     0.142 A 
ATOM     26  C   UNL d   1      44.311 -16.376  37.541  0.00  0.00     0.107 A 
ENDBRANCH  20  21
ENDBRANCH  19  20
ENDBRANCH  18  19
ENDBRANCH  17  18
ENDBRANCH   6  17
TORSDOF 5
ENDMDL
