MODEL 1
REMARK VINA RESULT:      -6.2      0.000      0.000
REMARK  3 active torsions:
REMARK  status: ('A' for Active; 'I' for Inactive)
REMARK    1  A    between atoms: N_3  and  C_1 
REMARK       I    between atoms: C_5  and  N_3 
REMARK    2  A    between atoms: C_10  and  C_4 
REMARK       I    between atoms: N_8  and  C_5 
REMARK    3  A    between atoms: C_11  and  N_8 
ROOT
ATOM      1  C   UNL d   1      57.991  -0.045  30.614  0.00  0.00     0.199 A 
ATOM      2  N   UNL d   1      57.379  -0.448  30.994  0.00  0.00    -0.221 NA
ATOM      3  C   UNL d   1      57.160  -0.003  31.689  0.00  0.00     0.090 A 
ATOM      4  S   UNL d   1      58.181   0.642  31.029  0.00  0.00    -0.046 SA
ATOM      5  C   UNL d   1      57.661   0.678  31.711  0.00  0.00     0.058 A 
ENDROOT
BRANCH   1   6
ATOM      6  N   UNL d   1      58.368  -0.300  29.901  0.00  0.00    -0.166 NA
ATOM      7  C   UNL d   1      58.164   0.082  29.179  0.00  0.00     0.370 C 
ATOM      8  N   UNL d   1      58.541  -0.173  28.467  0.00  0.00    -0.191 NA
ATOM      9  O   UNL d   1      57.618   0.682  29.152  0.00  0.00    -0.242 OA
BRANCH   8  10
ATOM     10  C   UNL d   1      59.090  -0.778  28.497  0.00  0.00     0.086 A 
ATOM     11  C   UNL d   1      58.881  -1.570  28.476  0.00  0.00     0.019 A 
ATOM     12  C   UNL d   1      59.451  -2.171  28.508  0.00  0.00     0.002 A 
ATOM     13  C   UNL d   1      60.248  -1.968  28.562  0.00  0.00     0.000 A 
ATOM     14  C   UNL d   1      60.473  -1.179  28.584  0.00  0.00     0.002 A 
ATOM     15  C   UNL d   1      59.886  -0.597  28.551  0.00  0.00     0.019 A 
ENDBRANCH   8  10
ENDBRANCH   1   6
BRANCH   3  16
ATOM     16  C   UNL d   1      56.570  -0.208  32.229  0.00  0.00     0.018 A 
ATOM     17  C   UNL d   1      56.090   0.381  32.591  0.00  0.00     0.002 A 
ATOM     18  C   UNL d   1      55.514   0.183  33.118  0.00  0.00     0.000 A 
ATOM     19  C   UNL d   1      55.383  -0.628  33.315  0.00  0.00     0.000 A 
ATOM     20  C   UNL d   1      55.856  -1.206  32.959  0.00  0.00     0.000 A 
ATOM     21  C   UNL d   1      56.442  -0.991  32.422  0.00  0.00     0.002 A 
ENDBRANCH   3  16
TORSDOF 3
ENDMDL
MODEL 2
REMARK VINA RESULT:      -4.7      1.075      4.745
REMARK  3 active torsions:
REMARK  status: ('A' for Active; 'I' for Inactive)
REMARK    1  A    between atoms: N_3  and  C_1 
REMARK       I    between atoms: C_5  and  N_3 
REMARK    2  A    between atoms: C_10  and  C_4 
REMARK       I    between atoms: N_8  and  C_5 
REMARK    3  A    between atoms: C_11  and  N_8 
ROOT
ATOM      1  C   UNL d   1      57.744  -0.079  30.910  0.00  0.00     0.199 A 
ATOM      2  N   UNL d   1      58.128  -0.760  30.646  0.00  0.00    -0.221 NA
ATOM      3  C   UNL d   1      58.438  -0.603  29.865  0.00  0.00     0.090 A 
ATOM      4  S   UNL d   1      57.789   0.515  30.339  0.00  0.00    -0.046 SA
ATOM      5  C   UNL d   1      58.227   0.194  29.673  0.00  0.00     0.058 A 
ENDROOT
BRANCH   1   6
ATOM      6  N   UNL d   1      57.359  -0.000  31.659  0.00  0.00    -0.166 NA
ATOM      7  C   UNL d   1      57.770   0.386  32.284  0.00  0.00     0.370 C 
ATOM      8  N   UNL d   1      57.386   0.464  33.033  0.00  0.00    -0.191 NA
ATOM      9  O   UNL d   1      58.520   0.681  32.185  0.00  0.00    -0.242 OA
BRANCH   8  10
ATOM     10  C   UNL d   1      56.631   0.166  33.130  0.00  0.00     0.086 A 
ATOM     11  C   UNL d   1      56.467  -0.637  33.139  0.00  0.00     0.019 A 
ATOM     12  C   UNL d   1      55.696  -0.922  33.238  0.00  0.00     0.002 A 
ATOM     13  C   UNL d   1      55.077  -0.386  33.331  0.00  0.00     0.000 A 
ATOM     14  C   UNL d   1      55.225   0.421  33.324  0.00  0.00     0.002 A 
ATOM     15  C   UNL d   1      56.003   0.682  33.223  0.00  0.00     0.019 A 
ENDBRANCH   8  10
ENDBRANCH   1   6
BRANCH   3  16
ATOM     16  C   UNL d   1      58.862  -1.135  29.398  0.00  0.00     0.018 A 
ATOM     17  C   UNL d   1      58.600  -1.929  29.301  0.00  0.00     0.002 A 
ATOM     18  C   UNL d   1      59.012  -2.451  28.845  0.00  0.00     0.000 A 
ATOM     19  C   UNL d   1      59.719  -2.204  28.455  0.00  0.00     0.000 A 
ATOM     20  C   UNL d   1      59.975  -1.423  28.552  0.00  0.00     0.000 A 
ATOM     21  C   UNL d   1      59.546  -0.900  29.020  0.00  0.00     0.002 A 
ENDBRANCH   3  16
TORSDOF 3
ENDMDL
MODEL 3
REMARK VINA RESULT:      -4.4      1.192      1.825
REMARK  3 active torsions:
REMARK  status: ('A' for Active; 'I' for Inactive)
REMARK    1  A    between atoms: N_3  and  C_1 
REMARK       I    between atoms: C_5  and  N_3 
REMARK    2  A    between atoms: C_10  and  C_4 
REMARK       I    between atoms: N_8  and  C_5 
REMARK    3  A    between atoms: C_11  and  N_8 
ROOT
ATOM      1  C   UNL d   1      57.060  -0.434  31.624  0.00  0.00     0.199 A 
ATOM      2  N   UNL d   1      56.805   0.103  32.196  0.00  0.00    -0.221 NA
ATOM      3  C   UNL d   1      56.299  -0.313  32.745  0.00  0.00     0.090 A 
ATOM      4  S   UNL d   1      56.745  -1.182  31.774  0.00  0.00    -0.046 SA
ATOM      5  C   UNL d   1      56.262  -1.116  32.482  0.00  0.00     0.058 A 
ENDROOT
BRANCH   1   6
ATOM      6  N   UNL d   1      57.571  -0.246  30.977  0.00  0.00    -0.166 NA
ATOM      7  C   UNL d   1      57.309   0.318  30.409  0.00  0.00     0.370 C 
ATOM      8  N   UNL d   1      57.820   0.506  29.762  0.00  0.00    -0.191 NA
ATOM      9  O   UNL d   1      56.586   0.681  30.468  0.00  0.00    -0.242 OA
BRANCH   8  10
ATOM     10  C   UNL d   1      58.548   0.139  29.705  0.00  0.00     0.086 A 
ATOM     11  C   UNL d   1      59.212   0.400  30.109  0.00  0.00     0.019 A 
ATOM     12  C   UNL d   1      59.942   0.016  30.040  0.00  0.00     0.002 A 
ATOM     13  C   UNL d   1      60.004  -0.646  29.552  0.00  0.00     0.000 A 
ATOM     14  C   UNL d   1      59.349  -0.920  29.141  0.00  0.00     0.002 A 
ATOM     15  C   UNL d   1      58.630  -0.520  29.226  0.00  0.00     0.019 A 
ENDBRANCH   8  10
ENDBRANCH   1   6
BRANCH   3  16
ATOM     16  C   UNL d   1      55.925   0.016  33.402  0.00  0.00     0.018 A 
ATOM     17  C   UNL d   1      56.372   0.357  34.029  0.00  0.00     0.002 A 
ATOM     18  C   UNL d   1      56.009   0.680  34.672  0.00  0.00     0.000 A 
ATOM     19  C   UNL d   1      55.166   0.679  34.725  0.00  0.00     0.000 A 
ATOM     20  C   UNL d   1      54.729   0.344  34.109  0.00  0.00     0.000 A 
ATOM     21  C   UNL d   1      55.111   0.018  33.457  0.00  0.00     0.002 A 
ENDBRANCH   3  16
TORSDOF 3
ENDMDL
