MODEL 1
REMARK VINA RESULT:      -1.6      0.000      0.000
REMARK  6 active torsions:
REMARK  status: ('A' for Active; 'I' for Inactive)
REMARK    1  A    between atoms: S_5  and  C_2 
REMARK    2  A    between atoms: C_13  and  S_5 
REMARK    3  A    between atoms: N_17  and  C_10 
REMARK    4  A    between atoms: C_24  and  N_17 
REMARK    5  A    between atoms: C_25  and  C_24 
REMARK    6  A    between atoms: C_26  and  C_25 
ROOT
ATOM      1  C   UNL d   1      32.932  20.371 -21.672  0.00  0.00     0.198 A 
ATOM      2  C   UNL d   1      33.038  19.566 -21.753  0.00  0.00     0.227 A 
ATOM      3  N   UNL d   1      33.056  20.567 -20.891  0.00  0.00    -0.192 N 
ATOM      4  N   UNL d   1      32.734  20.959 -22.227  0.00  0.00    -0.205 NA
ATOM      5  N   UNL d   1      33.231  19.258 -21.011  0.00  0.00    -0.115 NA
ATOM      6  N   UNL d   1      33.240  19.879 -20.483  0.00  0.00    -0.058 NA
ATOM      7  C   UNL d   1      32.984  21.356 -20.647  0.00  0.00     0.096 A 
ATOM      8  C   UNL d   1      32.786  21.944 -21.202  0.00  0.00     0.083 A 
ATOM      9  C   UNL d   1      32.662  21.745 -21.986  0.00  0.00     0.172 A 
ATOM     10  S   UNL d   1      32.754  22.671 -20.801  0.00  0.00    -0.082 SA
ATOM     11  C   UNL d   1      33.073  21.724 -19.908  0.00  0.00     0.027 A 
ATOM     12  C   UNL d   1      32.932  22.531 -20.001  0.00  0.00     0.037 A 
ENDROOT
BRANCH   2  13
ATOM     13  S   UNL d   1      32.969  19.122 -22.449  0.00  0.00     0.231 S 
ATOM     14  O   UNL d   1      32.746  18.473 -21.983  0.00  0.00    -0.215 OA
ATOM     15  O   UNL d   1      33.191  19.767 -22.916  0.00  0.00    -0.215 OA
BRANCH  13  16
ATOM     16  C   UNL d   1      32.885  18.636 -23.114  0.00  0.00     0.090 A 
ATOM     17  C   UNL d   1      32.806  18.973 -23.864  0.00  0.00     0.012 A 
ATOM     18  C   UNL d   1      32.722  18.490 -24.521  0.00  0.00     0.007 A 
ATOM     19  C   UNL d   1      32.717  17.665 -24.439  0.00  0.00     0.035 A 
ATOM     20  C   UNL d   1      32.797  17.332 -23.687  0.00  0.00     0.007 A 
ATOM     21 BR   UNL d   1      32.634  17.182 -25.097  0.00  0.00    -0.049 Br
ATOM     22  C   UNL d   1      32.881  17.815 -23.025  0.00  0.00     0.012 A 
ENDBRANCH  13  16
ENDBRANCH   2  13
BRANCH   9  23
ATOM     23  N   UNL d   1      32.464  22.330 -22.538  0.00  0.00    -0.225 NA
BRANCH  23  24
ATOM     24  C   UNL d   1      32.831  22.339 -23.277  0.00  0.00     0.101 C 
BRANCH  24  25
ATOM     25  C   UNL d   1      33.038  23.056 -23.624  0.00  0.00     0.021 C 
BRANCH  25  26
ATOM     26  C   UNL d   1      32.788  23.232 -24.387  0.00  0.00     0.002 C 
ATOM     27  C   UNL d   1      32.117  23.693 -24.506  0.00  0.00     0.000 C 
ATOM     28  C   UNL d   1      33.205  22.949 -25.042  0.00  0.00     0.000 C 
ENDBRANCH  25  26
ENDBRANCH  24  25
ENDBRANCH  23  24
ENDBRANCH   9  23
TORSDOF 6
ENDMDL
MODEL 2
REMARK VINA RESULT:      -0.4      1.433      3.022
REMARK  6 active torsions:
REMARK  status: ('A' for Active; 'I' for Inactive)
REMARK    1  A    between atoms: S_5  and  C_2 
REMARK    2  A    between atoms: C_13  and  S_5 
REMARK    3  A    between atoms: N_17  and  C_10 
REMARK    4  A    between atoms: C_24  and  N_17 
REMARK    5  A    between atoms: C_25  and  C_24 
REMARK    6  A    between atoms: C_26  and  C_25 
ROOT
ATOM      1  C   UNL d   1      32.866  20.220 -23.805  0.00  0.00     0.198 A 
ATOM      2  C   UNL d   1      32.730  19.553 -24.256  0.00  0.00     0.227 A 
ATOM      3  N   UNL d   1      32.867  20.867 -24.300  0.00  0.00    -0.192 N 
ATOM      4  N   UNL d   1      32.991  20.316 -22.988  0.00  0.00    -0.205 NA
ATOM      5  N   UNL d   1      32.646  19.791 -25.042  0.00  0.00    -0.115 NA
ATOM      6  N   UNL d   1      32.731  20.602 -25.065  0.00  0.00    -0.058 NA
ATOM      7  C   UNL d   1      32.993  21.624 -23.989  0.00  0.00     0.096 A 
ATOM      8  C   UNL d   1      33.118  21.720 -23.172  0.00  0.00     0.083 A 
ATOM      9  C   UNL d   1      33.117  21.070 -22.676  0.00  0.00     0.172 A 
ATOM     10  S   UNL d   1      33.227  22.531 -23.025  0.00  0.00    -0.082 SA
ATOM     11  C   UNL d   1      33.026  22.376 -24.341  0.00  0.00     0.027 A 
ATOM     12  C   UNL d   1      33.169  22.934 -23.750  0.00  0.00     0.037 A 
ENDROOT
BRANCH   2  13
ATOM     13  S   UNL d   1      32.682  18.772 -23.987  0.00  0.00     0.231 S 
ATOM     14  O   UNL d   1      33.221  18.561 -24.582  0.00  0.00    -0.215 OA
ATOM     15  O   UNL d   1      32.146  18.978 -23.394  0.00  0.00    -0.215 OA
BRANCH  13  16
ATOM     16  C   UNL d   1      32.670  17.977 -23.757  0.00  0.00     0.090 A 
ATOM     17  C   UNL d   1      33.210  17.701 -23.197  0.00  0.00     0.012 A 
ATOM     18  C   UNL d   1      33.197  16.913 -22.970  0.00  0.00     0.007 A 
ATOM     19  C   UNL d   1      32.645  16.390 -23.300  0.00  0.00     0.035 A 
ATOM     20  C   UNL d   1      32.106  16.669 -23.861  0.00  0.00     0.007 A 
ATOM     21 BR   UNL d   1      32.632  15.602 -23.073  0.00  0.00    -0.049 Br
ATOM     22  C   UNL d   1      32.117  17.461 -24.090  0.00  0.00     0.012 A 
ENDBRANCH  13  16
ENDBRANCH   2  13
BRANCH   9  23
ATOM     23  N   UNL d   1      33.241  21.165 -21.863  0.00  0.00    -0.225 NA
BRANCH  23  24
ATOM     24  C   UNL d   1      32.612  21.074 -21.337  0.00  0.00     0.101 C 
BRANCH  24  25
ATOM     25  C   UNL d   1      32.761  20.954 -20.536  0.00  0.00     0.021 C 
BRANCH  25  26
ATOM     26  C   UNL d   1      32.388  21.423 -19.973  0.00  0.00     0.002 C 
ATOM     27  C   UNL d   1      32.831  21.794 -19.386  0.00  0.00     0.000 C 
ATOM     28  C   UNL d   1      31.570  21.529 -19.989  0.00  0.00     0.000 C 
ENDBRANCH  25  26
ENDBRANCH  24  25
ENDBRANCH  23  24
ENDBRANCH   9  23
TORSDOF 6
ENDMDL
MODEL 3
REMARK VINA RESULT:      -0.1      2.627      4.822
REMARK  6 active torsions:
REMARK  status: ('A' for Active; 'I' for Inactive)
REMARK    1  A    between atoms: S_5  and  C_2 
REMARK    2  A    between atoms: C_13  and  S_5 
REMARK    3  A    between atoms: N_17  and  C_10 
REMARK    4  A    between atoms: C_24  and  N_17 
REMARK    5  A    between atoms: C_25  and  C_24 
REMARK    6  A    between atoms: C_26  and  C_25 
ROOT
ATOM      1  C   UNL d   1      32.351  18.045 -23.238  0.00  0.00     0.198 A 
ATOM      2  C   UNL d   1      32.806  18.564 -22.799  0.00  0.00     0.227 A 
ATOM      3  N   UNL d   1      32.499  17.290 -22.970  0.00  0.00    -0.192 N 
ATOM      4  N   UNL d   1      31.812  18.174 -23.858  0.00  0.00    -0.205 NA
ATOM      5  N   UNL d   1      33.241  18.123 -22.254  0.00  0.00    -0.115 NA
ATOM      6  N   UNL d   1      33.048  17.338 -22.363  0.00  0.00    -0.058 NA
ATOM      7  C   UNL d   1      32.110  16.646 -23.318  0.00  0.00     0.096 A 
ATOM      8  C   UNL d   1      31.570  16.775 -23.938  0.00  0.00     0.083 A 
ATOM      9  C   UNL d   1      31.423  17.535 -24.205  0.00  0.00     0.172 A 
ATOM     10  S   UNL d   1      31.271  16.036 -24.173  0.00  0.00    -0.082 SA
ATOM     11  C   UNL d   1      32.140  15.829 -23.174  0.00  0.00     0.027 A 
ATOM     12  C   UNL d   1      31.626  15.453 -23.698  0.00  0.00     0.037 A 
ENDROOT
BRANCH   2  13
ATOM     13  S   UNL d   1      32.835  19.387 -22.878  0.00  0.00     0.231 S 
ATOM     14  O   UNL d   1      32.667  19.445 -22.068  0.00  0.00    -0.215 OA
ATOM     15  O   UNL d   1      33.003  19.334 -23.685  0.00  0.00    -0.215 OA
BRANCH  13  16
ATOM     16  C   UNL d   1      32.854  20.215 -22.903  0.00  0.00     0.090 A 
ATOM     17  C   UNL d   1      32.508  20.654 -22.296  0.00  0.00     0.012 A 
ATOM     18  C   UNL d   1      32.527  21.473 -22.322  0.00  0.00     0.007 A 
ATOM     19  C   UNL d   1      32.891  21.865 -22.955  0.00  0.00     0.035 A 
ATOM     20  C   UNL d   1      33.237  21.422 -23.561  0.00  0.00     0.007 A 
ATOM     21 BR   UNL d   1      32.910  22.684 -22.982  0.00  0.00    -0.049 Br
ATOM     22  C   UNL d   1      33.219  20.599 -23.537  0.00  0.00     0.012 A 
ENDBRANCH  13  16
ENDBRANCH   2  13
BRANCH   9  23
ATOM     23  N   UNL d   1      30.886  17.663 -24.823  0.00  0.00    -0.225 NA
BRANCH  23  24
ATOM     24  C   UNL d   1      30.141  17.976 -24.661  0.00  0.00     0.101 C 
BRANCH  24  25
ATOM     25  C   UNL d   1      29.465  17.575 -24.907  0.00  0.00     0.021 C 
BRANCH  25  26
ATOM     26  C   UNL d   1      28.744  17.967 -24.945  0.00  0.00     0.002 C 
ATOM     27  C   UNL d   1      28.041  17.549 -24.851  0.00  0.00     0.000 C 
ATOM     28  C   UNL d   1      28.714  18.782 -25.076  0.00  0.00     0.000 C 
ENDBRANCH  25  26
ENDBRANCH  24  25
ENDBRANCH  23  24
ENDBRANCH   9  23
TORSDOF 6
ENDMDL
MODEL 4
REMARK VINA RESULT:       1.0      1.982      3.839
REMARK  6 active torsions:
REMARK  status: ('A' for Active; 'I' for Inactive)
REMARK    1  A    between atoms: S_5  and  C_2 
REMARK    2  A    between atoms: C_13  and  S_5 
REMARK    3  A    between atoms: N_17  and  C_10 
REMARK    4  A    between atoms: C_24  and  N_17 
REMARK    5  A    between atoms: C_25  and  C_24 
REMARK    6  A    between atoms: C_26  and  C_25 
ROOT
ATOM      1  C   UNL d   1      32.787  19.882 -22.683  0.00  0.00     0.198 A 
ATOM      2  C   UNL d   1      32.711  19.925 -21.871  0.00  0.00     0.227 A 
ATOM      3  N   UNL d   1      32.612  19.121 -22.915  0.00  0.00    -0.192 N 
ATOM      4  N   UNL d   1      32.997  20.456 -23.248  0.00  0.00    -0.205 NA
ATOM      5  N   UNL d   1      32.487  19.179 -21.597  0.00  0.00    -0.115 NA
ATOM      6  N   UNL d   1      32.427  18.687 -22.243  0.00  0.00    -0.058 NA
ATOM      7  C   UNL d   1      32.644  18.917 -23.717  0.00  0.00     0.096 A 
ATOM      8  C   UNL d   1      32.855  19.491 -24.282  0.00  0.00     0.083 A 
ATOM      9  C   UNL d   1      33.030  20.255 -24.047  0.00  0.00     0.172 A 
ATOM     10  S   UNL d   1      32.839  19.129 -25.030  0.00  0.00    -0.082 SA
ATOM     11  C   UNL d   1      32.500  18.205 -24.120  0.00  0.00     0.027 A 
ATOM     12  C   UNL d   1      32.620  18.333 -24.927  0.00  0.00     0.037 A 
ENDROOT
BRANCH   2  13
ATOM     13  S   UNL d   1      32.835  20.590 -21.394  0.00  0.00     0.231 S 
ATOM     14  O   UNL d   1      32.428  21.040 -21.961  0.00  0.00    -0.215 OA
ATOM     15  O   UNL d   1      33.241  20.146 -20.828  0.00  0.00    -0.215 OA
BRANCH  13  16
ATOM     16  C   UNL d   1      32.932  21.285 -20.955  0.00  0.00     0.090 A 
ATOM     17  C   UNL d   1      32.900  22.020 -21.332  0.00  0.00     0.012 A 
ATOM     18  C   UNL d   1      32.996  22.707 -20.895  0.00  0.00     0.007 A 
ATOM     19  C   UNL d   1      33.125  22.671 -20.077  0.00  0.00     0.035 A 
ATOM     20  C   UNL d   1      33.156  21.934 -19.704  0.00  0.00     0.007 A 
ATOM     21 BR   UNL d   1      33.221  23.359 -19.641  0.00  0.00    -0.049 Br
ATOM     22  C   UNL d   1      33.060  21.242 -20.140  0.00  0.00     0.012 A 
ENDBRANCH  13  16
ENDBRANCH   2  13
BRANCH   9  23
ATOM     23  N   UNL d   1      33.239  20.826 -24.609  0.00  0.00    -0.225 NA
BRANCH  23  24
ATOM     24  C   UNL d   1      32.775  21.501 -24.702  0.00  0.00     0.101 C 
BRANCH  24  25
ATOM     25  C   UNL d   1      33.126  22.246 -24.682  0.00  0.00     0.021 C 
BRANCH  25  26
ATOM     26  C   UNL d   1      32.659  22.922 -24.700  0.00  0.00     0.002 C 
ATOM     27  C   UNL d   1      32.917  23.612 -24.333  0.00  0.00     0.000 C 
ATOM     28  C   UNL d   1      31.928  22.918 -25.085  0.00  0.00     0.000 C 
ENDBRANCH  25  26
ENDBRANCH  24  25
ENDBRANCH  23  24
ENDBRANCH   9  23
TORSDOF 6
ENDMDL
