MODEL 1
REMARK VINA RESULT:      46.3      0.000      0.000
REMARK  1 active torsions:
REMARK  status: ('A' for Active; 'I' for Inactive)
REMARK       I    between atoms: N_3  and  C_1 
REMARK       I    between atoms: N_5  and  C_1 
REMARK       I    between atoms: C_2  and  N_4 
REMARK    1  A    between atoms: C_6  and  C_2 
ROOT
ATOM      1  C   UNL d   1      57.702  49.633  51.046  0.00  0.00     0.340 C 
ATOM      2  C   UNL d   1      61.001  49.517  50.976  0.00  0.00     0.271 C 
ATOM      3  N   UNL d   1      58.524  49.707  51.031  0.00  0.00    -0.254 N 
ATOM      4  N   UNL d   1      60.165  49.560  50.998  0.00  0.00    -0.269 N 
ATOM      5  N   UNL d   1      57.275  49.631  50.340  0.00  0.00    -0.253 N 
ATOM      6  O   UNL d   1      57.307  49.562  51.764  0.00  0.00    -0.245 OA
ATOM      7  C   UNL d   1      58.954  49.680  51.740  0.00  0.00     0.104 A 
ATOM      8  C   UNL d   1      58.928  49.679  50.300  0.00  0.00     0.104 A 
ATOM      9  C   UNL d   1      59.786  49.595  51.721  0.00  0.00     0.102 A 
ATOM     10  C   UNL d   1      59.750  49.609  50.281  0.00  0.00     0.102 A 
ATOM     11  O   UNL d   1      61.401  49.489  50.245  0.00  0.00    -0.266 OA
ATOM     12  O   UNL d   1      56.446  49.336  48.913  0.00  0.00    -0.300 OA
ATOM     13  C   UNL d   1      56.487  49.268  50.337  0.00  0.00     0.111 C 
ATOM     14  C   UNL d   1      57.704  49.412  49.608  0.00  0.00     0.111 C 
ATOM     15  C   UNL d   1      57.268  49.409  48.902  0.00  0.00     0.142 C 
ATOM     16  C   UNL d   1      56.060  49.266  49.639  0.00  0.00     0.142 C 
ENDROOT
BRANCH   2  17
ATOM     17  C   UNL d   1      61.432  49.482  51.685  0.00  0.00     0.086 A 
ATOM     18  S   UNL d   1      62.227  49.707  51.786  0.00  0.00    -0.082 SA
ATOM     19  C   UNL d   1      62.430  49.588  52.593  0.00  0.00     0.036 A 
ATOM     20  C   UNL d   1      61.760  49.284  52.981  0.00  0.00     0.008 A 
ATOM     21  C   UNL d   1      61.143  49.223  52.424  0.00  0.00     0.012 A 
ENDBRANCH   2  17
TORSDOF 1
ENDMDL
