MODEL 1
REMARK VINA RESULT:      -9.0      0.000      0.000
REMARK  5 active torsions:
REMARK  status: ('A' for Active; 'I' for Inactive)
REMARK    1  A    between atoms: C_2  and  S_1 
REMARK    2  A    between atoms: N_4  and  S_1 
REMARK    3  A    between atoms: C_11  and  N_4 
REMARK    4  A    between atoms: O_14  and  C_5 
REMARK    5  A    between atoms: O_15  and  C_7 
ROOT
ATOM      1  C   UNL d   1      52.748  33.018  53.354  0.00  0.00     0.129 A 
ATOM      2  C   UNL d   1      53.234  33.091  54.018  0.00  0.00     0.040 A 
ATOM      3  C   UNL d   1      52.345  33.675  53.073  0.00  0.00     0.107 A 
ATOM      4  C   UNL d   1      52.418  34.404  53.443  0.00  0.00     0.034 A 
ATOM      5  C   UNL d   1      53.312  33.821  54.396  0.00  0.00     0.101 A 
ATOM      6  C   UNL d   1      52.904  34.477  54.107  0.00  0.00     0.059 A 
ATOM      7 BR   UNL d   1      52.987  35.208  54.491  0.00  0.00    -0.047 Br
ENDROOT
BRANCH   1   8
ATOM      8  S   UNL d   1      52.675  32.289  52.984  0.00  0.00     0.287 S 
ATOM      9  O   UNL d   1      51.970  32.150  53.373  0.00  0.00    -0.198 OA
ATOM     10  O   UNL d   1      53.386  32.426  52.590  0.00  0.00    -0.198 OA
BRANCH   8  11
ATOM     11  N   UNL d   1      52.608  31.557  52.608  0.00  0.00    -0.157 NA
BRANCH  11  12
ATOM     12  C   UNL d   1      52.793  30.866  53.020  0.00  0.00     0.113 A 
ATOM     13  C   UNL d   1      52.197  30.408  53.342  0.00  0.00     0.119 A 
ATOM     14  N   UNL d   1      52.383  29.718  53.753  0.00  0.00    -0.241 NA
ATOM     15  C   UNL d   1      53.177  29.485  53.842  0.00  0.00     0.099 A 
ATOM     16  C   UNL d   1      53.774  29.954  53.514  0.00  0.00     0.022 A 
ATOM     17  C   UNL d   1      53.588  30.644  53.102  0.00  0.00     0.023 A 
ENDBRANCH  11  12
ENDBRANCH   8  11
ENDBRANCH   1   8
BRANCH   3  18
ATOM     18  O   UNL d   1      51.858  33.602  52.408  0.00  0.00    -0.327 OA
ATOM     19  C   UNL d   1      51.415  34.248  52.147  0.00  0.00     0.181 C 
ENDBRANCH   3  18
BRANCH   5  20
ATOM     20  O   UNL d   1      53.798  33.894  55.060  0.00  0.00    -0.328 OA
ATOM     21  C   UNL d   1      54.479  33.433  55.127  0.00  0.00     0.181 C 
ENDBRANCH   5  20
TORSDOF 5
ENDMDL
MODEL 2
REMARK VINA RESULT:      -8.6      0.993      2.063
REMARK  5 active torsions:
REMARK  status: ('A' for Active; 'I' for Inactive)
REMARK    1  A    between atoms: C_2  and  S_1 
REMARK    2  A    between atoms: N_4  and  S_1 
REMARK    3  A    between atoms: C_11  and  N_4 
REMARK    4  A    between atoms: O_14  and  C_5 
REMARK    5  A    between atoms: O_15  and  C_7 
ROOT
ATOM      1  C   UNL d   1      53.663  33.088  54.041  0.00  0.00     0.129 A 
ATOM      2  C   UNL d   1      52.948  33.350  53.722  0.00  0.00     0.040 A 
ATOM      3  C   UNL d   1      54.108  33.595  54.509  0.00  0.00     0.107 A 
ATOM      4  C   UNL d   1      53.852  34.360  54.664  0.00  0.00     0.034 A 
ATOM      5  C   UNL d   1      52.683  34.117  53.874  0.00  0.00     0.101 A 
ATOM      6  C   UNL d   1      53.136  34.622  54.345  0.00  0.00     0.059 A 
ATOM      7 BR   UNL d   1      52.865  35.391  54.493  0.00  0.00    -0.047 Br
ENDROOT
BRANCH   1   8
ATOM      8  S   UNL d   1      53.920  32.324  53.887  0.00  0.00     0.287 S 
ATOM      9  O   UNL d   1      53.610  32.064  54.597  0.00  0.00    -0.198 OA
ATOM     10  O   UNL d   1      54.234  32.582  53.169  0.00  0.00    -0.198 OA
BRANCH   8  11
ATOM     11  N   UNL d   1      54.181  31.558  53.724  0.00  0.00    -0.157 NA
BRANCH  11  12
ATOM     12  C   UNL d   1      53.636  30.977  53.508  0.00  0.00     0.113 A 
ATOM     13  C   UNL d   1      53.280  31.001  52.772  0.00  0.00     0.119 A 
ATOM     14  N   UNL d   1      52.736  30.420  52.557  0.00  0.00    -0.241 NA
ATOM     15  C   UNL d   1      52.548  29.807  53.087  0.00  0.00     0.099 A 
ATOM     16  C   UNL d   1      52.912  29.788  53.829  0.00  0.00     0.022 A 
ATOM     17  C   UNL d   1      53.456  30.370  54.044  0.00  0.00     0.023 A 
ENDBRANCH  11  12
ENDBRANCH   8  11
ENDBRANCH   1   8
BRANCH   3  18
ATOM     18  O   UNL d   1      54.825  33.333  54.828  0.00  0.00    -0.327 OA
ATOM     19  C   UNL d   1      55.284  33.842  55.287  0.00  0.00     0.181 C 
ENDBRANCH   3  18
BRANCH   5  20
ATOM     20  O   UNL d   1      51.967  34.380  53.554  0.00  0.00    -0.328 OA
ATOM     21  C   UNL d   1      51.815  34.286  52.749  0.00  0.00     0.181 C 
ENDBRANCH   5  20
TORSDOF 5
ENDMDL
MODEL 3
REMARK VINA RESULT:      -7.6      1.415      3.045
REMARK  5 active torsions:
REMARK  status: ('A' for Active; 'I' for Inactive)
REMARK    1  A    between atoms: C_2  and  S_1 
REMARK    2  A    between atoms: N_4  and  S_1 
REMARK    3  A    between atoms: C_11  and  N_4 
REMARK    4  A    between atoms: O_14  and  C_5 
REMARK    5  A    between atoms: O_15  and  C_7 
ROOT
ATOM      1  C   UNL d   1      53.079  33.176  53.781  0.00  0.00     0.129 A 
ATOM      2  C   UNL d   1      53.149  33.915  54.144  0.00  0.00     0.040 A 
ATOM      3  C   UNL d   1      53.634  32.593  53.939  0.00  0.00     0.107 A 
ATOM      4  C   UNL d   1      54.259  32.734  54.452  0.00  0.00     0.034 A 
ATOM      5  C   UNL d   1      53.775  34.064  54.661  0.00  0.00     0.101 A 
ATOM      6  C   UNL d   1      54.330  33.473  54.815  0.00  0.00     0.059 A 
ATOM      7 BR   UNL d   1      54.956  33.629  55.336  0.00  0.00    -0.047 Br
ENDROOT
BRANCH   1   8
ATOM      8  S   UNL d   1      52.454  33.035  53.268  0.00  0.00     0.287 S 
ATOM      9  O   UNL d   1      51.995  32.757  53.885  0.00  0.00    -0.198 OA
ATOM     10  O   UNL d   1      52.913  33.316  52.643  0.00  0.00    -0.198 OA
BRANCH   8  11
ATOM     11  N   UNL d   1      51.830  32.896  52.746  0.00  0.00    -0.157 NA
BRANCH  11  12
ATOM     12  C   UNL d   1      51.231  33.458  52.663  0.00  0.00     0.113 A 
ATOM     13  C   UNL d   1      50.622  33.493  53.208  0.00  0.00     0.119 A 
ATOM     14  N   UNL d   1      50.025  34.055  53.124  0.00  0.00    -0.241 NA
ATOM     15  C   UNL d   1      50.039  34.589  52.487  0.00  0.00     0.099 A 
ATOM     16  C   UNL d   1      50.658  34.548  51.940  0.00  0.00     0.022 A 
ATOM     17  C   UNL d   1      51.256  33.986  52.023  0.00  0.00     0.023 A 
ENDBRANCH  11  12
ENDBRANCH   8  11
ENDBRANCH   1   8
BRANCH   3  18
ATOM     18  O   UNL d   1      53.564  31.853  53.576  0.00  0.00    -0.327 OA
ATOM     19  C   UNL d   1      54.013  31.217  53.845  0.00  0.00     0.181 C 
ENDBRANCH   3  18
BRANCH   5  20
ATOM     20  O   UNL d   1      53.846  34.804  55.025  0.00  0.00    -0.328 OA
ATOM     21  C   UNL d   1      53.297  35.398  54.862  0.00  0.00     0.181 C 
ENDBRANCH   5  20
TORSDOF 5
ENDMDL
MODEL 4
REMARK VINA RESULT:      -7.5      1.854      3.666
REMARK  5 active torsions:
REMARK  status: ('A' for Active; 'I' for Inactive)
REMARK    1  A    between atoms: C_2  and  S_1 
REMARK    2  A    between atoms: N_4  and  S_1 
REMARK    3  A    between atoms: C_11  and  N_4 
REMARK    4  A    between atoms: O_14  and  C_5 
REMARK    5  A    between atoms: O_15  and  C_7 
ROOT
ATOM      1  C   UNL d   1      52.931  32.788  53.474  0.00  0.00     0.129 A 
ATOM      2  C   UNL d   1      52.678  32.135  53.037  0.00  0.00     0.040 A 
ATOM      3  C   UNL d   1      53.553  32.705  54.003  0.00  0.00     0.107 A 
ATOM      4  C   UNL d   1      53.928  31.982  54.102  0.00  0.00     0.034 A 
ATOM      5  C   UNL d   1      53.049  31.404  53.132  0.00  0.00     0.101 A 
ATOM      6  C   UNL d   1      53.674  31.328  53.665  0.00  0.00     0.059 A 
ATOM      7 BR   UNL d   1      54.044  30.591  53.756  0.00  0.00    -0.047 Br
ENDROOT
BRANCH   1   8
ATOM      8  S   UNL d   1      52.556  33.512  53.374  0.00  0.00     0.287 S 
ATOM      9  O   UNL d   1      52.060  33.355  54.004  0.00  0.00    -0.198 OA
ATOM     10  O   UNL d   1      53.056  33.675  52.738  0.00  0.00    -0.198 OA
BRANCH   8  11
ATOM     11  N   UNL d   1      52.185  34.241  53.268  0.00  0.00    -0.157 NA
BRANCH  11  12
ATOM     12  C   UNL d   1      51.483  34.284  52.836  0.00  0.00     0.113 A 
ATOM     13  C   UNL d   1      51.502  34.271  52.019  0.00  0.00     0.119 A 
ATOM     14  N   UNL d   1      50.800  34.314  51.588  0.00  0.00    -0.241 NA
ATOM     15  C   UNL d   1      50.070  34.372  51.983  0.00  0.00     0.099 A 
ATOM     16  C   UNL d   1      50.058  34.385  52.810  0.00  0.00     0.022 A 
ATOM     17  C   UNL d   1      50.761  34.342  53.240  0.00  0.00     0.023 A 
ENDBRANCH  11  12
ENDBRANCH   8  11
ENDBRANCH   1   8
BRANCH   3  18
ATOM     18  O   UNL d   1      53.807  33.359  54.440  0.00  0.00    -0.327 OA
ATOM     19  C   UNL d   1      54.435  33.284  54.970  0.00  0.00     0.181 C 
ENDBRANCH   3  18
BRANCH   5  20
ATOM     20  O   UNL d   1      52.796  30.750  52.694  0.00  0.00    -0.328 OA
ATOM     21  C   UNL d   1      52.172  30.285  52.969  0.00  0.00     0.181 C 
ENDBRANCH   5  20
TORSDOF 5
ENDMDL
MODEL 5
REMARK VINA RESULT:      -6.4      1.669      3.057
REMARK  5 active torsions:
REMARK  status: ('A' for Active; 'I' for Inactive)
REMARK    1  A    between atoms: C_2  and  S_1 
REMARK    2  A    between atoms: N_4  and  S_1 
REMARK    3  A    between atoms: C_11  and  N_4 
REMARK    4  A    between atoms: O_14  and  C_5 
REMARK    5  A    between atoms: O_15  and  C_7 
ROOT
ATOM      1  C   UNL d   1      52.876  32.952  53.483  0.00  0.00     0.129 A 
ATOM      2  C   UNL d   1      52.628  33.739  53.524  0.00  0.00     0.040 A 
ATOM      3  C   UNL d   1      52.399  32.396  53.113  0.00  0.00     0.107 A 
ATOM      4  C   UNL d   1      51.679  32.612  52.783  0.00  0.00     0.034 A 
ATOM      5  C   UNL d   1      51.906  33.963  53.195  0.00  0.00     0.101 A 
ATOM      6  C   UNL d   1      51.431  33.399  52.824  0.00  0.00     0.059 A 
ATOM      7 BR   UNL d   1      50.706  33.631  52.494  0.00  0.00    -0.047 Br
ENDROOT
BRANCH   1   8
ATOM      8  S   UNL d   1      53.596  32.736  53.814  0.00  0.00     0.287 S 
ATOM      9  O   UNL d   1      53.228  32.546  54.519  0.00  0.00    -0.198 OA
ATOM     10  O   UNL d   1      53.970  32.926  53.104  0.00  0.00    -0.198 OA
BRANCH   8  11
ATOM     11  N   UNL d   1      54.323  32.521  54.139  0.00  0.00    -0.157 NA
BRANCH  11  12
ATOM     12  C   UNL d   1      54.753  33.070  54.580  0.00  0.00     0.113 A 
ATOM     13  C   UNL d   1      54.583  33.184  55.372  0.00  0.00     0.119 A 
ATOM     14  N   UNL d   1      55.013  33.733  55.812  0.00  0.00    -0.241 NA
ATOM     15  C   UNL d   1      55.622  34.172  55.453  0.00  0.00     0.099 A 
ATOM     16  C   UNL d   1      55.789  34.051  54.652  0.00  0.00     0.022 A 
ATOM     17  C   UNL d   1      55.358  33.502  54.212  0.00  0.00     0.023 A 
ENDBRANCH  11  12
ENDBRANCH   8  11
ENDBRANCH   1   8
BRANCH   3  18
ATOM     18  O   UNL d   1      52.647  31.608  53.072  0.00  0.00    -0.327 OA
ATOM     19  C   UNL d   1      52.132  31.027  52.792  0.00  0.00     0.181 C 
ENDBRANCH   3  18
BRANCH   5  20
ATOM     20  O   UNL d   1      51.658  34.751  53.236  0.00  0.00    -0.328 OA
ATOM     21  C   UNL d   1      51.990  35.260  53.793  0.00  0.00     0.181 C 
ENDBRANCH   5  20
TORSDOF 5
ENDMDL
