MODEL 1
REMARK VINA RESULT:      83.9      0.000      0.000
REMARK  2 active torsions:
REMARK  status: ('A' for Active; 'I' for Inactive)
REMARK       I    between atoms: C_3  and  N_1 
REMARK       I    between atoms: C_4  and  N_2 
REMARK    1  A    between atoms: C_6  and  C_3 
REMARK    2  A    between atoms: C_8  and  C_4 
ROOT
ATOM      1  N   UNL d   1      59.293  49.568  50.115  0.00  0.00    -0.270 N 
ATOM      2  N   UNL d   1      60.670  49.451  51.028  0.00  0.00    -0.269 N 
ATOM      3  C   UNL d   1      58.610  49.626  49.662  0.00  0.00     0.265 C 
ATOM      4  C   UNL d   1      61.359  49.393  51.480  0.00  0.00     0.265 C 
ATOM      5  C   UNL d   1      60.038  49.588  49.751  0.00  0.00     0.085 A 
ATOM      6  C   UNL d   1      60.726  49.531  50.197  0.00  0.00     0.101 A 
ATOM      7  C   UNL d   1      59.244  49.489  50.936  0.00  0.00     0.102 A 
ATOM      8  C   UNL d   1      59.938  49.430  51.396  0.00  0.00     0.102 A 
ATOM      9  O   UNL d   1      58.661  49.705  48.838  0.00  0.00    -0.267 OA
ATOM     10  O   UNL d   1      62.103  49.414  51.110  0.00  0.00    -0.267 OA
ATOM     11  C   UNL d   1      60.092  49.668  48.923  0.00  0.00     0.021 C 
ENDROOT
BRANCH   3  12
ATOM     12  C   UNL d   1      57.871  49.606  50.026  0.00  0.00     0.057 A 
ATOM     13  C   UNL d   1      57.814  49.665  50.848  0.00  0.00     0.005 A 
ATOM     14  C   UNL d   1      57.074  49.645  51.212  0.00  0.00     0.000 A 
ATOM     15  C   UNL d   1      57.016  49.704  52.034  0.00  0.00     0.000 C 
ATOM     16  C   UNL d   1      56.393  49.565  50.755  0.00  0.00     0.000 A 
ATOM     17  C   UNL d   1      56.451  49.505  49.925  0.00  0.00     0.000 A 
ATOM     18  C   UNL d   1      57.189  49.526  49.570  0.00  0.00     0.005 A 
ENDBRANCH   3  12
BRANCH   4  19
ATOM     19  C   UNL d   1      61.306  49.315  52.299  0.00  0.00     0.057 A 
ATOM     20  C   UNL d   1      61.858  48.848  52.699  0.00  0.00     0.005 A 
ATOM     21  C   UNL d   1      61.805  48.770  53.518  0.00  0.00     0.000 A 
ATOM     22  C   UNL d   1      62.353  48.305  53.925  0.00  0.00     0.000 C 
ATOM     23  C   UNL d   1      61.200  49.158  53.937  0.00  0.00     0.000 A 
ATOM     24  C   UNL d   1      60.656  49.619  53.537  0.00  0.00     0.000 A 
ATOM     25  C   UNL d   1      60.706  49.701  52.710  0.00  0.00     0.005 A 
ENDBRANCH   4  19
TORSDOF 2
ENDMDL
