MODEL 1
REMARK VINA RESULT:      10.2      0.000      0.000
REMARK  3 active torsions:
REMARK  status: ('A' for Active; 'I' for Inactive)
REMARK    1  A    between atoms: C_6  and  N_1 
REMARK    2  A    between atoms: C_7  and  O_10 
REMARK    3  A    between atoms: O_10  and  C_13 
ROOT
ATOM      1  C   UNL d   1      46.288 -18.489  43.332  0.00  0.00     0.070 A 
ATOM      2  C   UNL d   1      46.302 -18.639  44.153  0.00  0.00     0.020 A 
ATOM      3  C   UNL d   1      46.158 -17.721  43.055  0.00  0.00     0.020 A 
ATOM      4  C   UNL d   1      46.055 -17.238  44.397  0.00  0.00     0.105 A 
ATOM      5  C   UNL d   1      46.042 -17.097  43.578  0.00  0.00     0.026 A 
ATOM      6  C   UNL d   1      46.186 -18.012  44.678  0.00  0.00     0.026 A 
ENDROOT
BRANCH   1   7
ATOM      7  N   UNL d   1      46.404 -19.110  42.811  0.00  0.00    -0.242 N 
ATOM      8  C   UNL d   1      46.375 -19.938  42.980  0.00  0.00     0.267 A 
ATOM      9  C   UNL d   1      46.524 -20.330  42.292  0.00  0.00     0.066 A 
ATOM     10  O   UNL d   1      46.224 -20.295  43.705  0.00  0.00    -0.267 OA
ATOM     11  C   UNL d   1      46.647 -19.805  41.691  0.00  0.00     0.066 A 
ATOM     12  C   UNL d   1      46.568 -19.035  42.032  0.00  0.00     0.267 A 
ATOM     13  O   UNL d   1      46.646 -18.313  41.635  0.00  0.00    -0.267 OA
ENDBRANCH   1   7
BRANCH   4  14
ATOM     14  O   UNL d   1      45.942 -16.631  44.905  0.00  0.00    -0.260 OA
BRANCH  14  15
ATOM     15  C   UNL d   1      45.618 -15.932  44.640  0.00  0.00     0.391 C 
ATOM     16  F   UNL d   1      46.091 -15.295  44.495  0.00  0.00    -0.145 F 
ATOM     17  F   UNL d   1      44.814 -15.875  44.521  0.00  0.00    -0.145 F 
ENDBRANCH  14  15
ENDBRANCH   4  14
TORSDOF 3
ENDMDL
MODEL 2
REMARK VINA RESULT:      10.3      7.589      8.048
REMARK  3 active torsions:
REMARK  status: ('A' for Active; 'I' for Inactive)
REMARK    1  A    between atoms: C_6  and  N_1 
REMARK    2  A    between atoms: C_7  and  O_10 
REMARK    3  A    between atoms: O_10  and  C_13 
ROOT
ATOM      1  C   UNL d   1      44.607 -15.164  36.858  0.00  0.00     0.070 A 
ATOM      2  C   UNL d   1      44.614 -15.922  36.508  0.00  0.00     0.020 A 
ATOM      3  C   UNL d   1      43.888 -14.795  37.027  0.00  0.00     0.020 A 
ATOM      4  C   UNL d   1      43.171 -15.918  36.508  0.00  0.00     0.105 A 
ATOM      5  C   UNL d   1      43.172 -15.164  36.856  0.00  0.00     0.026 A 
ATOM      6  C   UNL d   1      43.896 -16.292  36.336  0.00  0.00     0.026 A 
ENDROOT
BRANCH   1   7
ATOM      7  N   UNL d   1      45.319 -14.797  37.028  0.00  0.00    -0.242 N 
ATOM      8  C   UNL d   1      46.094 -15.042  36.801  0.00  0.00     0.267 A 
ATOM      9  C   UNL d   1      46.616 -14.504  37.098  0.00  0.00     0.066 A 
ATOM     10  O   UNL d   1      46.299 -15.705  36.358  0.00  0.00    -0.267 OA
ATOM     11  C   UNL d   1      46.222 -13.928  37.503  0.00  0.00     0.066 A 
ATOM     12  C   UNL d   1      45.401 -14.123  37.453  0.00  0.00     0.267 A 
ATOM     13  O   UNL d   1      44.774 -13.696  37.783  0.00  0.00    -0.267 OA
ENDBRANCH   1   7
BRANCH   4  14
ATOM     14  O   UNL d   1      42.475 -16.276  36.341  0.00  0.00    -0.260 OA
BRANCH  14  15
ATOM     15  C   UNL d   1      41.775 -15.870  36.432  0.00  0.00     0.391 C 
ATOM     16  F   UNL d   1      41.783 -15.075  36.569  0.00  0.00    -0.145 F 
ATOM     17  F   UNL d   1      41.065 -16.266  36.386  0.00  0.00    -0.145 F 
ENDBRANCH  14  15
ENDBRANCH   4  14
TORSDOF 3
ENDMDL
MODEL 3
REMARK VINA RESULT:      13.2      7.189      7.984
REMARK  3 active torsions:
REMARK  status: ('A' for Active; 'I' for Inactive)
REMARK    1  A    between atoms: C_6  and  N_1 
REMARK    2  A    between atoms: C_7  and  O_10 
REMARK    3  A    between atoms: O_10  and  C_13 
ROOT
ATOM      1  C   UNL d   1      43.865 -15.584  36.606  0.00  0.00     0.070 A 
ATOM      2  C   UNL d   1      44.131 -14.841  36.332  0.00  0.00     0.020 A 
ATOM      3  C   UNL d   1      44.400 -16.114  36.946  0.00  0.00     0.020 A 
ATOM      4  C   UNL d   1      45.469 -15.185  36.748  0.00  0.00     0.105 A 
ATOM      5  C   UNL d   1      45.197 -15.922  37.019  0.00  0.00     0.026 A 
ATOM      6  C   UNL d   1      44.931 -14.649  36.405  0.00  0.00     0.026 A 
ENDROOT
BRANCH   1   7
ATOM      7  N   UNL d   1      43.072 -15.775  36.533  0.00  0.00    -0.242 N 
ATOM      8  C   UNL d   1      42.409 -15.253  36.575  0.00  0.00     0.267 A 
ATOM      9  C   UNL d   1      41.744 -15.698  36.471  0.00  0.00     0.066 A 
ATOM     10  O   UNL d   1      42.419 -14.440  36.697  0.00  0.00    -0.267 OA
ATOM     11  C   UNL d   1      41.941 -16.473  36.365  0.00  0.00     0.066 A 
ATOM     12  C   UNL d   1      42.784 -16.511  36.407  0.00  0.00     0.267 A 
ATOM     13  O   UNL d   1      43.249 -17.191  36.331  0.00  0.00    -0.267 OA
ENDBRANCH   1   7
BRANCH   4  14
ATOM     14  O   UNL d   1      46.244 -14.999  36.820  0.00  0.00    -0.260 OA
BRANCH  14  15
ATOM     15  C   UNL d   1      46.464 -14.301  37.178  0.00  0.00     0.391 C 
ATOM     16  F   UNL d   1      46.502 -14.253  37.982  0.00  0.00    -0.145 F 
ATOM     17  F   UNL d   1      46.647 -13.650  36.725  0.00  0.00    -0.145 F 
ENDBRANCH  14  15
ENDBRANCH   4  14
TORSDOF 3
ENDMDL
