MODEL 1
REMARK VINA RESULT:      -1.7      0.000      0.000
REMARK  6 active torsions:
REMARK  status: ('A' for Active; 'I' for Inactive)
REMARK    1  A    between atoms: N_3  and  C_1 
REMARK    2  A    between atoms: S_2  and  C_10 
REMARK    3  A    between atoms: N_8  and  S_2 
REMARK       I    between atoms: C_9  and  N_3 
REMARK    4  A    between atoms: C_23  and  N_4 
REMARK    5  A    between atoms: C_13  and  C_9 
REMARK    6  A    between atoms: O_25  and  C_14 
ROOT
ATOM      1  N   UNL d   1      58.153  -0.419  30.797  0.00  0.00    -0.184 NA
ATOM      2  C   UNL d   1      58.186   0.169  31.385  0.00  0.00     0.281 C 
ATOM      3  O   UNL d   1      58.835   0.679  31.418  0.00  0.00    -0.265 OA
ENDROOT
BRANCH   2   4
ATOM      4  C   UNL d   1      57.571   0.242  31.935  0.00  0.00     0.058 A 
ATOM      5  C   UNL d   1      57.744   0.248  32.739  0.00  0.00     0.005 A 
ATOM      6  C   UNL d   1      57.131   0.320  33.288  0.00  0.00     0.013 A 
ATOM      7  C   UNL d   1      56.346   0.387  33.031  0.00  0.00     0.104 A 
ATOM      8  C   UNL d   1      56.181   0.381  32.214  0.00  0.00     0.013 A 
ATOM      9  C   UNL d   1      56.792   0.308  31.662  0.00  0.00     0.005 A 
BRANCH   7  10
ATOM     10  S   UNL d   1      55.733   0.460  33.579  0.00  0.00     0.272 S 
ATOM     11  O   UNL d   1      56.299   0.312  34.175  0.00  0.00    -0.200 OA
ATOM     12  O   UNL d   1      55.181   0.604  32.989  0.00  0.00    -0.200 OA
BRANCH  10  13
ATOM     13  N   UNL d   1      55.123   0.532  34.127  0.00  0.00    -0.225 N 
ATOM     14  C   UNL d   1      55.300   0.552  34.926  0.00  0.00     0.118 A 
ATOM     15  C   UNL d   1      54.691   0.624  35.478  0.00  0.00     0.142 A 
ATOM     16  O   UNL d   1      53.907   0.675  35.225  0.00  0.00    -0.300 OA
ATOM     17  C   UNL d   1      53.735   0.654  34.419  0.00  0.00     0.142 A 
ATOM     18  C   UNL d   1      54.344   0.582  33.867  0.00  0.00     0.118 A 
ENDBRANCH  10  13
ENDBRANCH   7  10
ENDBRANCH   2   4
BRANCH   1  19
ATOM     19  C   UNL d   1      58.777  -0.488  30.246  0.00  0.00     0.182 A 
ATOM     20  N   UNL d   1      59.045  -1.187  29.916  0.00  0.00    -0.283 N 
ATOM     21  C   UNL d   1      59.666  -1.015  29.400  0.00  0.00     0.094 A 
ATOM     22  C   UNL d   1      60.146  -1.501  28.916  0.00  0.00     0.111 A 
ATOM     23  C   UNL d   1      59.785  -0.204  29.409  0.00  0.00     0.050 A 
ATOM     24  C   UNL d   1      60.731  -1.156  28.455  0.00  0.00     0.026 A 
ATOM     25  C   UNL d   1      60.857  -0.343  28.459  0.00  0.00     0.003 A 
ATOM     26  C   UNL d   1      60.381   0.136  28.938  0.00  0.00     0.008 A 
ATOM     27  S   UNL d   1      59.240   0.132  29.930  0.00  0.00    -0.048 SA
BRANCH  20  28
ATOM     28  C   UNL d   1      58.749  -1.942  30.068  0.00  0.00     0.082 C 
ATOM     29  C   UNL d   1      58.021  -2.228  29.807  0.00  0.00     0.021 C 
ENDBRANCH  20  28
BRANCH  22  30
ATOM     30  O   UNL d   1      60.029  -2.307  28.906  0.00  0.00    -0.327 OA
ATOM     31  C   UNL d   1      60.549  -2.794  28.503  0.00  0.00     0.181 C 
ENDBRANCH  22  30
ENDBRANCH   1  19
TORSDOF 6
ENDMDL
MODEL 2
REMARK VINA RESULT:       0.9      1.035      1.588
REMARK  6 active torsions:
REMARK  status: ('A' for Active; 'I' for Inactive)
REMARK    1  A    between atoms: N_3  and  C_1 
REMARK    2  A    between atoms: S_2  and  C_10 
REMARK    3  A    between atoms: N_8  and  S_2 
REMARK       I    between atoms: C_9  and  N_3 
REMARK    4  A    between atoms: C_23  and  N_4 
REMARK    5  A    between atoms: C_13  and  C_9 
REMARK    6  A    between atoms: O_25  and  C_14 
ROOT
ATOM      1  N   UNL d   1      58.263  -0.687  31.314  0.00  0.00    -0.184 NA
ATOM      2  C   UNL d   1      57.437  -0.622  31.235  0.00  0.00     0.281 C 
ATOM      3  O   UNL d   1      57.085  -0.746  30.499  0.00  0.00    -0.265 OA
ENDROOT
BRANCH   2   4
ATOM      4  C   UNL d   1      56.971  -0.435  31.894  0.00  0.00     0.058 A 
ATOM      5  C   UNL d   1      56.268  -0.841  32.023  0.00  0.00     0.005 A 
ATOM      6  C   UNL d   1      55.803  -0.654  32.679  0.00  0.00     0.013 A 
ATOM      7  C   UNL d   1      56.043  -0.062  33.206  0.00  0.00     0.104 A 
ATOM      8  C   UNL d   1      56.758   0.344  33.068  0.00  0.00     0.013 A 
ATOM      9  C   UNL d   1      57.226   0.160  32.411  0.00  0.00     0.005 A 
BRANCH   7  10
ATOM     10  S   UNL d   1      55.579   0.125  33.862  0.00  0.00     0.272 S 
ATOM     11  O   UNL d   1      54.916  -0.122  33.417  0.00  0.00    -0.200 OA
ATOM     12  O   UNL d   1      56.232   0.366  34.295  0.00  0.00    -0.200 OA
BRANCH  10  13
ATOM     13  N   UNL d   1      55.114   0.311  34.516  0.00  0.00    -0.225 N 
ATOM     14  C   UNL d   1      55.458   0.345  35.258  0.00  0.00     0.118 A 
ATOM     15  C   UNL d   1      54.995   0.532  35.915  0.00  0.00     0.142 A 
ATOM     16  O   UNL d   1      54.189   0.682  35.825  0.00  0.00    -0.300 OA
ATOM     17  C   UNL d   1      53.848   0.645  35.075  0.00  0.00     0.142 A 
ATOM     18  C   UNL d   1      54.311   0.459  34.417  0.00  0.00     0.118 A 
ENDBRANCH  10  13
ENDBRANCH   7  10
ENDBRANCH   2   4
BRANCH   1  19
ATOM     19  C   UNL d   1      58.728  -0.877  30.645  0.00  0.00     0.182 A 
ATOM     20  N   UNL d   1      59.273  -0.381  30.289  0.00  0.00    -0.283 N 
ATOM     21  C   UNL d   1      59.611  -0.777  29.649  0.00  0.00     0.094 A 
ATOM     22  C   UNL d   1      60.193  -0.549  29.090  0.00  0.00     0.111 A 
ATOM     23  C   UNL d   1      59.275  -1.523  29.605  0.00  0.00     0.050 A 
ATOM     24  C   UNL d   1      60.417  -1.080  28.505  0.00  0.00     0.026 A 
ATOM     25  C   UNL d   1      60.084  -1.830  28.455  0.00  0.00     0.003 A 
ATOM     26  C   UNL d   1      59.509  -2.053  29.008  0.00  0.00     0.008 A 
ATOM     27  S   UNL d   1      58.726  -1.594  30.218  0.00  0.00    -0.048 SA
BRANCH  20  28
ATOM     28  C   UNL d   1      59.460   0.387  30.525  0.00  0.00     0.082 C 
ATOM     29  C   UNL d   1      59.937   0.583  31.170  0.00  0.00     0.021 C 
ENDBRANCH  20  28
BRANCH  22  30
ATOM     30  O   UNL d   1      60.529   0.191  29.132  0.00  0.00    -0.327 OA
ATOM     31  C   UNL d   1      60.931   0.498  28.488  0.00  0.00     0.181 C 
ENDBRANCH  22  30
ENDBRANCH   1  19
TORSDOF 6
ENDMDL
