MODEL 1
REMARK VINA RESULT:      62.2      0.000      0.000
REMARK  5 active torsions:
REMARK  status: ('A' for Active; 'I' for Inactive)
REMARK    1  A    between atoms: S_3  and  N_1 
REMARK    2  A    between atoms: C_7  and  C_4 
REMARK    3  A    between atoms: C_8  and  C_5 
REMARK    4  A    between atoms: O_17  and  C_12 
REMARK    5  A    between atoms: C_20  and  O_17 
ROOT
ATOM      1  N   UNL d   1     -51.635  26.041  34.632  0.00  0.00    -0.155 N 
ATOM      2  N   UNL d   1     -52.306  25.544  34.642  0.00  0.00    -0.155 NA
ATOM      3  C   UNL d   1     -51.212  25.871  33.967  0.00  0.00     0.098 A 
ATOM      4  C   UNL d   1     -52.273  25.080  33.973  0.00  0.00     0.110 A 
ATOM      5  C   UNL d   1     -51.580  25.276  33.530  0.00  0.00     0.041 A 
ENDROOT
BRANCH   3   6
ATOM      6  C   UNL d   1     -50.506  26.240  33.746  0.00  0.00     0.041 A 
ATOM      7  C   UNL d   1     -49.858  25.792  33.529  0.00  0.00     0.102 A 
ATOM      8  C   UNL d   1     -49.154  26.160  33.308  0.00  0.00     0.025 A 
ATOM      9  C   UNL d   1     -49.097  26.975  33.306  0.00  0.00     0.002 A 
ATOM     10  C   UNL d   1     -49.749  27.430  33.525  0.00  0.00     0.000 A 
ATOM     11  C   UNL d   1     -50.453  27.062  33.745  0.00  0.00     0.004 A 
BRANCH   7  12
ATOM     12  O   UNL d   1     -49.909  24.965  33.529  0.00  0.00    -0.305 OA
BRANCH  12  13
ATOM     13  C   UNL d   1     -49.252  24.513  33.334  0.00  0.00     0.123 C 
ATOM     14  C   UNL d   1     -49.286  23.687  33.388  0.00  0.00     0.029 C 
ENDBRANCH  12  13
ENDBRANCH   7  12
ENDBRANCH   3   6
BRANCH   1  15
ATOM     15  S   UNL d   1     -51.459  26.587  35.199  0.00  0.00     0.266 S 
ATOM     16  O   UNL d   1     -51.654  26.037  35.800  0.00  0.00    -0.203 OA
ATOM     17  O   UNL d   1     -51.260  27.148  34.643  0.00  0.00    -0.203 OA
ATOM     18  C   UNL d   1     -51.279  27.145  35.810  0.00  0.00     0.165 C 
ENDBRANCH   1  15
BRANCH   4  19
ATOM     19  C   UNL d   1     -52.817  24.500  33.738  0.00  0.00     0.049 A 
ATOM     20  S   UNL d   1     -53.626  24.622  33.743  0.00  0.00    -0.085 SA
ATOM     21  C   UNL d   1     -53.973  23.922  33.474  0.00  0.00     0.035 A 
ATOM     22  C   UNL d   1     -53.377  23.372  33.306  0.00  0.00     0.007 A 
ATOM     23  C   UNL d   1     -52.650  23.740  33.473  0.00  0.00     0.009 A 
ENDBRANCH   4  19
TORSDOF 5
ENDMDL
MODEL 2
REMARK VINA RESULT:      63.9      1.516      3.923
REMARK  5 active torsions:
REMARK  status: ('A' for Active; 'I' for Inactive)
REMARK    1  A    between atoms: S_3  and  N_1 
REMARK    2  A    between atoms: C_7  and  C_4 
REMARK    3  A    between atoms: C_8  and  C_5 
REMARK    4  A    between atoms: O_17  and  C_12 
REMARK    5  A    between atoms: C_20  and  O_17 
ROOT
ATOM      1  N   UNL d   1     -51.468  24.749  33.666  0.00  0.00    -0.155 N 
ATOM      2  N   UNL d   1     -51.045  25.428  33.428  0.00  0.00    -0.155 NA
ATOM      3  C   UNL d   1     -52.114  24.994  34.082  0.00  0.00     0.098 A 
ATOM      4  C   UNL d   1     -51.451  26.077  33.709  0.00  0.00     0.110 A 
ATOM      5  C   UNL d   1     -52.136  25.818  34.129  0.00  0.00     0.041 A 
ENDROOT
BRANCH   3   6
ATOM      6  C   UNL d   1     -52.680  24.495  34.418  0.00  0.00     0.041 A 
ATOM      7  C   UNL d   1     -52.969  24.644  35.167  0.00  0.00     0.102 A 
ATOM      8  C   UNL d   1     -53.534  24.145  35.502  0.00  0.00     0.025 A 
ATOM      9  C   UNL d   1     -53.810  23.498  35.088  0.00  0.00     0.002 A 
ATOM     10  C   UNL d   1     -53.522  23.344  34.331  0.00  0.00     0.000 A 
ATOM     11  C   UNL d   1     -52.956  23.843  33.996  0.00  0.00     0.004 A 
BRANCH   7  12
ATOM     12  O   UNL d   1     -52.693  25.299  35.593  0.00  0.00    -0.305 OA
BRANCH  12  13
ATOM     13  C   UNL d   1     -53.044  25.504  36.306  0.00  0.00     0.123 C 
ATOM     14  C   UNL d   1     -52.574  25.705  36.958  0.00  0.00     0.029 C 
ENDBRANCH  12  13
ENDBRANCH   7  12
ENDBRANCH   3   6
BRANCH   1  15
ATOM     15  S   UNL d   1     -51.251  23.990  33.500  0.00  0.00     0.266 S 
ATOM     16  O   UNL d   1     -52.045  23.798  33.313  0.00  0.00    -0.203 OA
ATOM     17  O   UNL d   1     -50.470  24.140  33.675  0.00  0.00    -0.203 OA
ATOM     18  C   UNL d   1     -51.047  23.188  33.321  0.00  0.00     0.165 C 
ENDBRANCH   1  15
BRANCH   4  19
ATOM     19  C   UNL d   1     -51.247  26.875  33.613  0.00  0.00     0.049 A 
ATOM     20  S   UNL d   1     -51.771  27.436  33.327  0.00  0.00    -0.085 SA
ATOM     21  C   UNL d   1     -51.364  28.155  33.313  0.00  0.00     0.035 A 
ATOM     22  C   UNL d   1     -50.592  28.034  33.591  0.00  0.00     0.007 A 
ATOM     23  C   UNL d   1     -50.523  27.227  33.778  0.00  0.00     0.009 A 
ENDBRANCH   4  19
TORSDOF 5
ENDMDL
