MODEL 1
REMARK VINA RESULT:      -7.7      0.000      0.000
REMARK  4 active torsions:
REMARK  status: ('A' for Active; 'I' for Inactive)
REMARK    1  A    between atoms: N_10  and  C_3 
REMARK    2  A    between atoms: C_12  and  C_5 
REMARK    3  A    between atoms: C_20  and  N_11 
REMARK    4  A    between atoms: C_24  and  C_20 
ROOT
ATOM      1  N   UNL d   1      52.373  34.194  53.551  0.00  0.00    -0.196 N 
ATOM      2  C   UNL d   1      53.055  33.931  53.945  0.00  0.00     0.167 A 
ATOM      3  C   UNL d   1      51.937  33.658  53.108  0.00  0.00     0.152 A 
ATOM      4  N   UNL d   1      52.591  35.493  54.053  0.00  0.00    -0.163 NA
ATOM      5  C   UNL d   1      53.499  34.443  54.386  0.00  0.00     0.055 A 
ATOM      6  N   UNL d   1      53.285  33.138  53.886  0.00  0.00    -0.227 NA
ATOM      7  C   UNL d   1      52.161  32.876  53.048  0.00  0.00     0.052 A 
ATOM      8  C   UNL d   1      53.269  35.232  54.444  0.00  0.00     0.104 A 
ATOM      9  C   UNL d   1      52.839  32.614  53.439  0.00  0.00     0.086 A 
ATOM     10  C   UNL d   1      51.706  32.351  52.596  0.00  0.00     0.004 A 
ATOM     11  C   UNL d   1      53.703  35.752  54.881  0.00  0.00     0.023 C 
ATOM     12  C   UNL d   1      53.069  31.826  53.382  0.00  0.00     0.019 A 
ATOM     13  C   UNL d   1      51.944  31.551  52.540  0.00  0.00     0.000 A 
ATOM     14  C   UNL d   1      52.622  31.290  52.931  0.00  0.00     0.002 A 
ENDROOT
BRANCH   3  15
ATOM     15  N   UNL d   1      51.244  33.921  52.707  0.00  0.00    -0.286 N 
ATOM     16  C   UNL d   1      50.552  33.993  53.201  0.00  0.00     0.101 A 
ATOM     17  C   UNL d   1      49.813  34.253  52.868  0.00  0.00     0.100 A 
ATOM     18  N   UNL d   1      49.765  34.443  52.040  0.00  0.00    -0.297 N 
ATOM     19  C   UNL d   1      50.448  34.372  51.555  0.00  0.00     0.100 A 
ATOM     20  C   UNL d   1      51.189  34.110  51.890  0.00  0.00     0.101 A 
BRANCH  18  21
ATOM     21  C   UNL d   1      49.031  34.702  51.709  0.00  0.00     0.126 C 
BRANCH  21  22
ATOM     22  C   UNL d   1      48.808  34.491  50.918  0.00  0.00     0.253 C 
ATOM     23  O   UNL d   1      48.004  34.515  50.672  0.00  0.00    -0.281 OA
ENDBRANCH  21  22
ENDBRANCH  18  21
ENDBRANCH   3  15
BRANCH   5  24
ATOM     24  C   UNL d   1      54.177  34.182  54.777  0.00  0.00     0.004 A 
ATOM     25  C   UNL d   1      54.898  34.226  54.401  0.00  0.00     0.000 A 
ATOM     26  C   UNL d   1      55.576  33.964  54.792  0.00  0.00     0.000 A 
ATOM     27  C   UNL d   1      55.522  33.663  55.553  0.00  0.00     0.000 A 
ATOM     28  C   UNL d   1      54.791  33.623  55.924  0.00  0.00     0.000 A 
ATOM     29  C   UNL d   1      54.114  33.884  55.533  0.00  0.00     0.000 A 
ENDBRANCH   5  24
TORSDOF 4
ENDMDL
MODEL 2
REMARK VINA RESULT:      -5.9      1.638      3.377
REMARK  4 active torsions:
REMARK  status: ('A' for Active; 'I' for Inactive)
REMARK    1  A    between atoms: N_10  and  C_3 
REMARK    2  A    between atoms: C_12  and  C_5 
REMARK    3  A    between atoms: C_20  and  N_11 
REMARK    4  A    between atoms: C_24  and  C_20 
ROOT
ATOM      1  N   UNL d   1      52.429  31.819  53.312  0.00  0.00    -0.196 N 
ATOM      2  C   UNL d   1      52.941  31.264  53.659  0.00  0.00     0.167 A 
ATOM      3  C   UNL d   1      52.515  32.613  53.501  0.00  0.00     0.152 A 
ATOM      4  N   UNL d   1      51.781  30.778  52.617  0.00  0.00    -0.163 NA
ATOM      5  C   UNL d   1      52.873  30.477  53.486  0.00  0.00     0.055 A 
ATOM      6  N   UNL d   1      53.526  31.518  54.186  0.00  0.00    -0.227 NA
ATOM      7  C   UNL d   1      53.092  32.865  54.020  0.00  0.00     0.052 A 
ATOM      8  C   UNL d   1      52.289  30.227  52.962  0.00  0.00     0.104 A 
ATOM      9  C   UNL d   1      53.600  32.315  54.365  0.00  0.00     0.086 A 
ATOM     10  C   UNL d   1      53.161  33.672  54.197  0.00  0.00     0.004 A 
ATOM     11  C   UNL d   1      52.211  29.445  52.782  0.00  0.00     0.023 C 
ATOM     12  C   UNL d   1      54.184  32.564  54.889  0.00  0.00     0.019 A 
ATOM     13  C   UNL d   1      53.755  33.922  54.730  0.00  0.00     0.000 A 
ATOM     14  C   UNL d   1      54.263  33.371  55.075  0.00  0.00     0.002 A 
ENDROOT
BRANCH   3  15
ATOM     15  N   UNL d   1      51.997  33.179  53.151  0.00  0.00    -0.286 N 
ATOM     16  C   UNL d   1      51.229  33.233  53.517  0.00  0.00     0.101 A 
ATOM     17  C   UNL d   1      50.650  33.782  53.220  0.00  0.00     0.100 A 
ATOM     18  N   UNL d   1      50.840  34.279  52.555  0.00  0.00    -0.297 N 
ATOM     19  C   UNL d   1      51.598  34.224  52.196  0.00  0.00     0.100 A 
ATOM     20  C   UNL d   1      52.178  33.673  52.496  0.00  0.00     0.101 A 
BRANCH  18  21
ATOM     21  C   UNL d   1      50.265  34.824  52.260  0.00  0.00     0.126 C 
BRANCH  21  22
ATOM     22  C   UNL d   1      49.490  34.565  52.033  0.00  0.00     0.253 C 
ATOM     23  O   UNL d   1      48.895  35.117  51.811  0.00  0.00    -0.281 OA
ENDBRANCH  21  22
ENDBRANCH  18  21
ENDBRANCH   3  15
BRANCH   5  24
ATOM     24  C   UNL d   1      53.381  29.926  53.831  0.00  0.00     0.004 A 
ATOM     25  C   UNL d   1      53.149  29.535  54.506  0.00  0.00     0.000 A 
ATOM     26  C   UNL d   1      53.658  28.984  54.850  0.00  0.00     0.000 A 
ATOM     27  C   UNL d   1      54.390  28.833  54.514  0.00  0.00     0.000 A 
ATOM     28  C   UNL d   1      54.615  29.233  53.834  0.00  0.00     0.000 A 
ATOM     29  C   UNL d   1      54.107  29.784  53.490  0.00  0.00     0.000 A 
ENDBRANCH   5  24
TORSDOF 4
ENDMDL
