MODEL 1
REMARK VINA RESULT:      42.8      0.000      0.000
REMARK  5 active torsions:
REMARK  status: ('A' for Active; 'I' for Inactive)
REMARK    1  A    between atoms: C_11  and  C_3 
REMARK    2  A    between atoms: C_12  and  N_5 
REMARK    3  A    between atoms: C_10  and  C_14 
REMARK    4  A    between atoms: O_24  and  C_11 
REMARK    5  A    between atoms: C_25  and  O_24 
ROOT
ATOM      1  C   UNL d   1      13.390  13.065  -3.936  0.00  0.00     0.086 A 
ATOM      2  C   UNL d   1      13.514  12.493  -3.360  0.00  0.00     0.038 A 
ATOM      3  C   UNL d   1      13.887  12.694  -2.652  0.00  0.00     0.165 A 
ATOM      4  C   UNL d   1      13.639  13.844  -3.807  0.00  0.00     0.282 A 
ATOM      5  N   UNL d   1      14.010  14.046  -3.103  0.00  0.00    -0.194 N 
ATOM      6  N   UNL d   1      14.136  13.473  -2.523  0.00  0.00    -0.157 NA
ATOM      7  C   UNL d   1      13.010  12.700  -4.573  0.00  0.00     0.137 A 
ATOM      8  C   UNL d   1      13.211  11.780  -3.643  0.00  0.00     0.039 A 
ATOM      9  S   UNL d   1      12.902  11.909  -4.386  0.00  0.00    -0.066 SA
ATOM     10  O   UNL d   1      13.514  14.426  -4.389  0.00  0.00    -0.265 OA
ATOM     11  N   UNL d   1      12.769  13.055  -5.287  0.00  0.00    -0.141 N 
ENDROOT
BRANCH   5  12
ATOM     12  C   UNL d   1      14.258  14.820  -2.974  0.00  0.00     0.086 A 
ATOM     13  C   UNL d   1      14.507  15.055  -2.227  0.00  0.00     0.019 A 
ATOM     14  C   UNL d   1      14.757  15.836  -2.098  0.00  0.00     0.005 A 
ATOM     15  C   UNL d   1      14.755  16.377  -2.716  0.00  0.00     0.072 A 
ATOM     16  C   UNL d   1      14.505  16.144  -3.467  0.00  0.00     0.005 A 
ATOM     17  C   UNL d   1      14.256  15.362  -3.597  0.00  0.00     0.019 A 
BRANCH  15  18
ATOM     18  C   UNL d   1      15.003  17.152  -2.588  0.00  0.00     0.419 C 
ATOM     19  F   UNL d   1      15.229  17.859  -2.467  0.00  0.00    -0.166 F 
ATOM     20  F   UNL d   1      15.233  17.531  -1.855  0.00  0.00    -0.166 F 
ATOM     21  F   UNL d   1      15.098  17.788  -3.148  0.00  0.00    -0.166 F 
ENDBRANCH  15  18
ENDBRANCH   5  12
BRANCH   3  22
ATOM     22  C   UNL d   1      14.012  12.112  -2.070  0.00  0.00     0.320 C 
ATOM     23  O   UNL d   1      14.757  11.779  -1.980  0.00  0.00    -0.257 OA
BRANCH  22  24
ATOM     24  O   UNL d   1      13.388  11.869  -1.583  0.00  0.00    -0.270 OA
BRANCH  24  25
ATOM     25  C   UNL d   1      13.496  11.821  -0.770  0.00  0.00     0.126 C 
ATOM     26  C   UNL d   1      12.837  11.780  -0.265  0.00  0.00     0.029 C 
ENDBRANCH  24  25
ENDBRANCH  22  24
ENDBRANCH   3  22
TORSDOF 5
ENDMDL
MODEL 2
REMARK VINA RESULT:      44.2      1.410      2.476
REMARK  5 active torsions:
REMARK  status: ('A' for Active; 'I' for Inactive)
REMARK    1  A    between atoms: C_11  and  C_3 
REMARK    2  A    between atoms: C_12  and  N_5 
REMARK    3  A    between atoms: C_10  and  C_14 
REMARK    4  A    between atoms: O_24  and  C_11 
REMARK    5  A    between atoms: C_25  and  O_24 
ROOT
ATOM      1  C   UNL d   1      14.447  13.034  -1.404  0.00  0.00     0.086 A 
ATOM      2  C   UNL d   1      14.067  12.490  -1.888  0.00  0.00     0.038 A 
ATOM      3  C   UNL d   1      13.835  12.706  -2.650  0.00  0.00     0.165 A 
ATOM      4  C   UNL d   1      14.598  13.800  -1.681  0.00  0.00     0.282 A 
ATOM      5  N   UNL d   1      14.368  14.016  -2.439  0.00  0.00    -0.194 N 
ATOM      6  N   UNL d   1      13.987  13.471  -2.926  0.00  0.00    -0.157 NA
ATOM      7  C   UNL d   1      14.607  12.660  -0.685  0.00  0.00     0.137 A 
ATOM      8  C   UNL d   1      13.995  11.784  -1.466  0.00  0.00     0.039 A 
ATOM      9  S   UNL d   1      14.326  11.890  -0.729  0.00  0.00    -0.066 SA
ATOM     10  O   UNL d   1      14.983  14.353  -1.192  0.00  0.00    -0.265 OA
ATOM     11  N   UNL d   1      14.986  12.987  -0.019  0.00  0.00    -0.141 N 
ENDROOT
BRANCH   5  12
ATOM     12  C   UNL d   1      14.519  14.777  -2.713  0.00  0.00     0.086 A 
ATOM     13  C   UNL d   1      14.827  15.345  -2.206  0.00  0.00     0.019 A 
ATOM     14  C   UNL d   1      14.979  16.114  -2.483  0.00  0.00     0.005 A 
ATOM     15  C   UNL d   1      14.821  16.308  -3.266  0.00  0.00     0.072 A 
ATOM     16  C   UNL d   1      14.512  15.739  -3.777  0.00  0.00     0.005 A 
ATOM     17  C   UNL d   1      14.360  14.970  -3.500  0.00  0.00     0.019 A 
BRANCH  15  18
ATOM     18  C   UNL d   1      14.972  17.069  -3.540  0.00  0.00     0.419 C 
ATOM     19  F   UNL d   1      15.113  17.764  -3.790  0.00  0.00    -0.166 F 
ATOM     20  F   UNL d   1      15.708  17.506  -3.543  0.00  0.00    -0.166 F 
ATOM     21  F   UNL d   1      14.436  17.630  -3.897  0.00  0.00    -0.166 F 
ENDBRANCH  15  18
ENDBRANCH   5  12
BRANCH   3  22
ATOM     22  C   UNL d   1      13.450  12.152  -3.138  0.00  0.00     0.320 C 
ATOM     23  O   UNL d   1      12.769  11.779  -2.872  0.00  0.00    -0.257 OA
BRANCH  22  24
ATOM     24  O   UNL d   1      13.752  11.978  -3.889  0.00  0.00    -0.270 OA
BRANCH  24  25
ATOM     25  C   UNL d   1      13.240  11.830  -4.514  0.00  0.00     0.126 C 
ATOM     26  C   UNL d   1      13.512  11.889  -5.298  0.00  0.00     0.029 C 
ENDBRANCH  24  25
ENDBRANCH  22  24
ENDBRANCH   3  22
TORSDOF 5
ENDMDL
