MODEL 1
REMARK VINA RESULT:      75.2      0.000      0.000
REMARK  7 active torsions:
REMARK  status: ('A' for Active; 'I' for Inactive)
REMARK    1  A    between atoms: C_11  and  C_4 
REMARK    2  A    between atoms: N_12  and  C_5 
REMARK    3  A    between atoms: C_10  and  C_8 
REMARK    4  A    between atoms: C_15  and  N_12 
REMARK    5  A    between atoms: N_13  and  C_19 
REMARK    6  A    between atoms: C_14  and  C_15 
REMARK    7  A    between atoms: C_19  and  C_14 
ROOT
ATOM      1  C   UNL d   1      59.835  49.032  51.931  0.00  0.00     0.168 A 
ATOM      2  N   UNL d   1      59.546  49.186  52.702  0.00  0.00    -0.184 N 
ATOM      3  N   UNL d   1      59.353  49.161  51.283  0.00  0.00    -0.231 NA
ATOM      4  C   UNL d   1      60.588  48.757  51.826  0.00  0.00     0.057 A 
ATOM      5  C   UNL d   1      58.791  49.459  52.782  0.00  0.00     0.217 A 
ATOM      6  N   UNL d   1      60.777  48.783  53.230  0.00  0.00    -0.160 NA
ATOM      7  C   UNL d   1      58.300  49.592  52.140  0.00  0.00     0.067 A 
ATOM      8  C   UNL d   1      58.584  49.441  51.380  0.00  0.00     0.064 A 
ATOM      9  C   UNL d   1      61.062  48.631  52.470  0.00  0.00     0.124 A 
ENDROOT
BRANCH   5  10
ATOM     10  N   UNL d   1      58.498  49.616  53.566  0.00  0.00    -0.380 NA
BRANCH  10  11
ATOM     11  C   UNL d   1      58.232  49.704  54.364  0.00  0.00     0.164 C 
BRANCH  11  12
ATOM     12  C   UNL d   1      57.413  49.550  54.539  0.00  0.00     0.054 C 
BRANCH  12  13
ATOM     13  C   UNL d   1      57.150  49.564  55.355  0.00  0.00     0.083 C 
BRANCH  13  14
ATOM     14  N   UNL d   1      56.917  48.843  55.734  0.00  0.00    -0.300 N 
ATOM     15  C   UNL d   1      56.097  48.998  55.577  0.00  0.00     0.100 C 
ATOM     16  C   UNL d   1      57.132  48.127  56.148  0.00  0.00     0.100 C 
ENDBRANCH  13  14
ENDBRANCH  12  13
ENDBRANCH  11  12
ENDBRANCH  10  11
ENDBRANCH   5  10
BRANCH   8  17
ATOM     17  C   UNL d   1      58.085  49.574  50.702  0.00  0.00     0.036 C 
ATOM     18  C   UNL d   1      57.588  49.705  50.035  0.00  0.00     0.006 C 
ATOM     19  C   UNL d   1      58.430  49.606  49.925  0.00  0.00     0.006 C 
ATOM     20  C   UNL d   1      57.242  49.674  50.807  0.00  0.00     0.006 C 
ENDBRANCH   8  17
BRANCH   4  21
ATOM     21  C   UNL d   1      60.873  48.606  51.067  0.00  0.00     0.004 A 
ATOM     22  C   UNL d   1      61.105  47.862  50.876  0.00  0.00     0.000 A 
ATOM     23  C   UNL d   1      61.390  47.711  50.116  0.00  0.00     0.000 A 
ATOM     24  C   UNL d   1      61.433  48.308  49.572  0.00  0.00     0.000 A 
ATOM     25  C   UNL d   1      61.194  49.062  49.774  0.00  0.00     0.000 A 
ATOM     26  C   UNL d   1      60.910  49.214  50.533  0.00  0.00     0.000 A 
ENDBRANCH   4  21
TORSDOF 7
ENDMDL
