MODEL 1
REMARK VINA RESULT:      58.0      0.000      0.000
REMARK  4 active torsions:
REMARK  status: ('A' for Active; 'I' for Inactive)
REMARK    1  A    between atoms: C_8  and  C_2 
REMARK    2  A    between atoms: C_9  and  N_3 
REMARK    3  A    between atoms: C_12  and  C_9 
REMARK    4  A    between atoms: C_14  and  C_12 
ROOT
ATOM      1  N   UNL d   1     -57.685 -98.948 -45.245  0.00  0.00    -0.217 NA
ATOM      2  C   UNL d   1     -57.149 -98.910 -44.624  0.00  0.00     0.149 A 
ATOM      3  N   UNL d   1     -57.421 -98.864 -43.849  0.00  0.00    -0.290 N 
ATOM      4  C   UNL d   1     -58.767 -98.895 -44.331  0.00  0.00     0.044 A 
ATOM      5  C   UNL d   1     -58.491 -98.941 -45.108  0.00  0.00     0.139 A 
ATOM      6  C   UNL d   1     -58.235 -98.857 -43.696  0.00  0.00     0.068 A 
ATOM      7  S   UNL d   1     -59.022 -98.979 -45.723  0.00  0.00    -0.057 SA
ATOM      8  C   UNL d   1     -59.574 -98.888 -44.182  0.00  0.00     0.004 A 
ATOM      9  C   UNL d   1     -58.510 -98.811 -42.929  0.00  0.00     0.018 A 
ATOM     10  C   UNL d   1     -59.852 -98.843 -43.413  0.00  0.00     0.000 A 
ATOM     11  C   UNL d   1     -59.302 -98.804 -42.777  0.00  0.00     0.002 A 
ENDROOT
BRANCH   2  12
ATOM     12  C   UNL d   1     -56.336 -98.917 -44.767  0.00  0.00     0.035 A 
ATOM     13  C   UNL d   1     -55.814 -99.082 -44.155  0.00  0.00     0.003 A 
ATOM     14  C   UNL d   1     -54.992 -99.088 -44.305  0.00  0.00     0.000 A 
ATOM     15  C   UNL d   1     -54.712 -98.929 -45.066  0.00  0.00     0.000 A 
ATOM     16  C   UNL d   1     -55.246 -98.765 -45.673  0.00  0.00     0.000 A 
ATOM     17  C   UNL d   1     -56.056 -98.758 -45.528  0.00  0.00     0.003 A 
ENDBRANCH   2  12
BRANCH   3  18
ATOM     18  C   UNL d   1     -56.880 -98.826 -43.222  0.00  0.00     0.085 C 
BRANCH  18  19
ATOM     19  C   UNL d   1     -57.119 -99.065 -42.475  0.00  0.00     0.064 C 
BRANCH  19  20
ATOM     20  C   UNL d   1     -56.584 -99.046 -41.847  0.00  0.00     0.236 C 
ATOM     21  O   UNL d   1     -55.787 -98.991 -41.981  0.00  0.00    -0.283 OA
ENDBRANCH  19  20
ENDBRANCH  18  19
ENDBRANCH   3  18
TORSDOF 4
ENDMDL
MODEL 2
REMARK VINA RESULT:      58.5      1.143      1.473
REMARK  4 active torsions:
REMARK  status: ('A' for Active; 'I' for Inactive)
REMARK    1  A    between atoms: C_8  and  C_2 
REMARK    2  A    between atoms: C_9  and  N_3 
REMARK    3  A    between atoms: C_12  and  C_9 
REMARK    4  A    between atoms: C_14  and  C_12 
ROOT
ATOM      1  N   UNL d   1     -57.154 -98.966 -45.626  0.00  0.00    -0.217 NA
ATOM      2  C   UNL d   1     -57.030 -99.077 -44.822  0.00  0.00     0.149 A 
ATOM      3  N   UNL d   1     -57.672 -99.098 -44.308  0.00  0.00    -0.290 N 
ATOM      4  C   UNL d   1     -58.553 -98.897 -45.415  0.00  0.00     0.044 A 
ATOM      5  C   UNL d   1     -57.908 -98.876 -45.930  0.00  0.00     0.139 A 
ATOM      6  C   UNL d   1     -58.441 -99.008 -44.601  0.00  0.00     0.068 A 
ATOM      7  S   UNL d   1     -58.030 -98.766 -46.726  0.00  0.00    -0.057 SA
ATOM      8  C   UNL d   1     -59.315 -98.808 -45.708  0.00  0.00     0.004 A 
ATOM      9  C   UNL d   1     -59.080 -99.029 -44.095  0.00  0.00     0.018 A 
ATOM     10  C   UNL d   1     -59.958 -98.828 -45.201  0.00  0.00     0.000 A 
ATOM     11  C   UNL d   1     -59.831 -98.942 -44.378  0.00  0.00     0.002 A 
ENDROOT
BRANCH   2  12
ATOM     12  C   UNL d   1     -56.267 -99.167 -44.521  0.00  0.00     0.035 A 
ATOM     13  C   UNL d   1     -55.723 -99.636 -44.919  0.00  0.00     0.003 A 
ATOM     14  C   UNL d   1     -54.951 -99.724 -44.610  0.00  0.00     0.000 A 
ATOM     15  C   UNL d   1     -54.743 -99.340 -43.908  0.00  0.00     0.000 A 
ATOM     16  C   UNL d   1     -55.298 -98.872 -43.517  0.00  0.00     0.000 A 
ATOM     17  C   UNL d   1     -56.058 -98.783 -43.819  0.00  0.00     0.003 A 
ENDBRANCH   2  12
BRANCH   3  18
ATOM     18  C   UNL d   1     -57.547 -99.210 -43.496  0.00  0.00     0.085 C 
BRANCH  18  19
ATOM     19  C   UNL d   1     -57.976 -98.760 -42.961  0.00  0.00     0.064 C 
BRANCH  19  20
ATOM     20  C   UNL d   1     -58.602 -99.102 -42.546  0.00  0.00     0.236 C 
ATOM     21  O   UNL d   1     -59.131 -99.589 -42.918  0.00  0.00    -0.283 OA
ENDBRANCH  19  20
ENDBRANCH  18  19
ENDBRANCH   3  18
TORSDOF 4
ENDMDL
