MODEL 1
REMARK VINA RESULT:      71.3      0.000      0.000
REMARK  7 active torsions:
REMARK  status: ('A' for Active; 'I' for Inactive)
REMARK    1  A    between atoms: O_8  and  C_2 
REMARK    2  A    between atoms: C_10  and  C_5 
REMARK    3  A    between atoms: C_21  and  O_8 
REMARK    4  A    between atoms: N_9  and  C_10 
REMARK    5  A    between atoms: C_12  and  C_15 
REMARK    6  A    between atoms: O_26  and  C_12 
REMARK    7  A    between atoms: C_32  and  O_26 
ROOT
ATOM      1  C   UNL d   1      13.986  13.151  -1.797  0.00  0.00     0.108 A 
ATOM      2  C   UNL d   1      13.404  13.272  -3.349  0.00  0.00     0.161 A 
ATOM      3  C   UNL d   1      14.093  12.520  -2.336  0.00  0.00     0.064 A 
ATOM      4  C   UNL d   1      13.806  12.579  -3.103  0.00  0.00     0.222 A 
ATOM      5  C   UNL d   1      14.276  13.092  -1.022  0.00  0.00     0.079 A 
ATOM      6  O   UNL d   1      13.589  13.842  -2.032  0.00  0.00    -0.305 OA
ATOM      7  C   UNL d   1      13.297  13.898  -2.815  0.00  0.00     0.126 A 
ATOM      8  C   UNL d   1      14.493  11.836  -2.083  0.00  0.00     0.009 A 
ATOM      9  C   UNL d   1      14.671  12.411  -0.780  0.00  0.00     0.199 A 
ATOM     10  O   UNL d   1      13.910  11.957  -3.637  0.00  0.00    -0.284 OA
ATOM     11  C   UNL d   1      14.780  11.780  -1.313  0.00  0.00     0.042 A 
ATOM     12  O   UNL d   1      14.959  12.349  -0.016  0.00  0.00    -0.286 OA
ATOM     13  C   UNL d   1      12.902  14.579  -3.058  0.00  0.00     0.029 C 
ENDROOT
BRANCH   2  14
ATOM     14  O   UNL d   1      13.117  13.328  -4.119  0.00  0.00    -0.302 OA
BRANCH  14  15
ATOM     15  C   UNL d   1      13.316  13.976  -4.584  0.00  0.00     0.100 A 
ATOM     16  C   UNL d   1      12.774  14.586  -4.693  0.00  0.00     0.025 A 
ATOM     17  C   UNL d   1      12.973  15.234  -5.159  0.00  0.00     0.007 A 
ATOM     18  C   UNL d   1      13.716  15.273  -5.517  0.00  0.00     0.064 A 
ATOM     19  C   UNL d   1      14.261  14.652  -5.404  0.00  0.00     0.007 A 
ATOM     20  C   UNL d   1      14.059  14.011  -4.941  0.00  0.00     0.025 A 
BRANCH  18  21
ATOM     21  C   UNL d   1      13.919  15.922  -5.986  0.00  0.00     0.300 C 
ATOM     22  O   UNL d   1      14.639  15.935  -6.388  0.00  0.00    -0.259 OA
BRANCH  21  23
ATOM     23  O   UNL d   1      13.405  16.565  -6.057  0.00  0.00    -0.271 OA
BRANCH  23  24
ATOM     24  C   UNL d   1      13.708  17.332  -6.043  0.00  0.00     0.126 C 
ATOM     25  C   UNL d   1      13.271  17.958  -6.352  0.00  0.00     0.029 C 
ENDBRANCH  23  24
ENDBRANCH  21  23
ENDBRANCH  18  21
ENDBRANCH  14  15
ENDBRANCH   2  14
BRANCH   5  26
ATOM     26  C   UNL d   1      14.169  13.710  -0.500  0.00  0.00     0.086 C 
BRANCH  26  27
ATOM     27  N   UNL d   1      14.777  14.259  -0.380  0.00  0.00    -0.300 N 
ATOM     28  C   UNL d   1      15.522  14.001  -0.135  0.00  0.00     0.100 A 
ATOM     29  C   UNL d   1      16.123  14.547  -0.016  0.00  0.00     0.100 A 
ATOM     30  N   UNL d   1      15.988  15.348  -0.140  0.00  0.00    -0.299 N 
ATOM     31  C   UNL d   1      15.240  15.606  -0.386  0.00  0.00     0.100 A 
ATOM     32  C   UNL d   1      16.597  15.900  -0.019  0.00  0.00     0.100 C 
ATOM     33  C   UNL d   1      14.633  15.058  -0.506  0.00  0.00     0.100 A 
ENDBRANCH  26  27
ENDBRANCH   5  26
TORSDOF 7
ENDMDL
MODEL 2
REMARK VINA RESULT:      72.2      1.624      2.796
REMARK  7 active torsions:
REMARK  status: ('A' for Active; 'I' for Inactive)
REMARK    1  A    between atoms: O_8  and  C_2 
REMARK    2  A    between atoms: C_10  and  C_5 
REMARK    3  A    between atoms: C_21  and  O_8 
REMARK    4  A    between atoms: N_9  and  C_10 
REMARK    5  A    between atoms: C_12  and  C_15 
REMARK    6  A    between atoms: O_26  and  C_12 
REMARK    7  A    between atoms: C_32  and  O_26 
ROOT
ATOM      1  C   UNL d   1      13.605  13.541  -4.161  0.00  0.00     0.108 A 
ATOM      2  C   UNL d   1      14.093  14.531  -5.402  0.00  0.00     0.161 A 
ATOM      3  C   UNL d   1      13.622  13.252  -4.947  0.00  0.00     0.064 A 
ATOM      4  C   UNL d   1      13.863  13.741  -5.560  0.00  0.00     0.222 A 
ATOM      5  C   UNL d   1      13.360  13.046  -3.540  0.00  0.00     0.079 A 
ATOM      6  O   UNL d   1      13.831  14.322  -3.994  0.00  0.00    -0.305 OA
ATOM      7  C   UNL d   1      14.077  14.818  -4.623  0.00  0.00     0.126 A 
ATOM      8  C   UNL d   1      13.392  12.467  -5.094  0.00  0.00     0.009 A 
ATOM      9  C   UNL d   1      13.134  12.269  -3.696  0.00  0.00     0.199 A 
ATOM     10  O   UNL d   1      13.881  13.460  -6.336  0.00  0.00    -0.284 OA
ATOM     11  C   UNL d   1      13.150  11.978  -4.476  0.00  0.00     0.042 A 
ATOM     12  O   UNL d   1      12.893  11.779  -3.086  0.00  0.00    -0.286 OA
ATOM     13  C   UNL d   1      14.303  15.595  -4.468  0.00  0.00     0.029 C 
ENDROOT
BRANCH   2  14
ATOM     14  O   UNL d   1      14.335  15.020  -6.019  0.00  0.00    -0.302 OA
BRANCH  14  15
ATOM     15  C   UNL d   1      14.119  15.814  -6.023  0.00  0.00     0.100 A 
ATOM     16  C   UNL d   1      13.417  16.047  -6.384  0.00  0.00     0.025 A 
ATOM     17  C   UNL d   1      13.201  16.840  -6.387  0.00  0.00     0.007 A 
ATOM     18  C   UNL d   1      13.688  17.403  -6.030  0.00  0.00     0.064 A 
ATOM     19  C   UNL d   1      14.398  17.162  -5.666  0.00  0.00     0.007 A 
ATOM     20  C   UNL d   1      14.609  16.373  -5.665  0.00  0.00     0.025 A 
BRANCH  18  21
ATOM     21  C   UNL d   1      13.474  18.201  -6.032  0.00  0.00     0.300 C 
ATOM     22  O   UNL d   1      12.769  18.444  -5.679  0.00  0.00    -0.259 OA
BRANCH  21  23
ATOM     23  O   UNL d   1      13.964  18.764  -6.387  0.00  0.00    -0.271 OA
BRANCH  23  24
ATOM     24  C   UNL d   1      13.910  19.554  -6.154  0.00  0.00     0.126 C 
ATOM     25  C   UNL d   1      14.465  19.874  -5.637  0.00  0.00     0.029 C 
ENDBRANCH  23  24
ENDBRANCH  21  23
ENDBRANCH  18  21
ENDBRANCH  14  15
ENDBRANCH   2  14
BRANCH   5  26
ATOM     26  C   UNL d   1      13.345  13.332  -2.776  0.00  0.00     0.086 C 
BRANCH  26  27
ATOM     27  N   UNL d   1      13.789  12.957  -2.187  0.00  0.00    -0.300 N 
ATOM     28  C   UNL d   1      13.686  12.151  -2.043  0.00  0.00     0.100 A 
ATOM     29  C   UNL d   1      14.126  11.781  -1.458  0.00  0.00     0.100 A 
ATOM     30  N   UNL d   1      14.670  12.208  -1.014  0.00  0.00    -0.299 N 
ATOM     31  C   UNL d   1      14.773  13.018  -1.158  0.00  0.00     0.100 A 
ATOM     32  C   UNL d   1      15.116  11.834  -0.422  0.00  0.00     0.100 C 
ATOM     33  C   UNL d   1      14.330  13.393  -1.748  0.00  0.00     0.100 A 
ENDBRANCH  26  27
ENDBRANCH   5  26
TORSDOF 7
ENDMDL
