MODEL 1
REMARK VINA RESULT:       2.4      0.000      0.000
REMARK  4 active torsions:
REMARK  status: ('A' for Active; 'I' for Inactive)
REMARK    1  A    between atoms: C_2  and  C_1 
REMARK    2  A    between atoms: C_4  and  C_1 
REMARK    3  A    between atoms: C_5  and  C_2 
REMARK    4  A    between atoms: N_6  and  C_5 
ROOT
ATOM      1  C   UNL d   1      45.676 -13.054  44.515  0.00  0.00     0.197 C 
ATOM      2  O   UNL d   1      46.245 -12.613  44.933  0.00  0.00    -0.286 OA
ENDROOT
BRANCH   1   3
ATOM      3  C   UNL d   1      45.203 -12.695  43.963  0.00  0.00     0.061 C 
BRANCH   3   4
ATOM      4  C   UNL d   1      45.530 -12.343  43.305  0.00  0.00     0.084 C 
BRANCH   4   5
ATOM      5  N   UNL d   1      45.061 -12.191  42.643  0.00  0.00    -0.300 N 
ATOM      6  C   UNL d   1      45.405 -12.150  41.898  0.00  0.00     0.100 C 
ATOM      7  C   UNL d   1      44.250 -12.082  42.730  0.00  0.00     0.100 C 
ENDBRANCH   4   5
ENDBRANCH   3   4
ENDBRANCH   1   3
BRANCH   1   8
ATOM      8  C   UNL d   1      45.587 -13.881  44.665  0.00  0.00     0.039 A 
ATOM      9  C   UNL d   1      46.253 -14.351  44.805  0.00  0.00     0.003 A 
ATOM     10  C   UNL d   1      46.173 -15.145  44.949  0.00  0.00     0.000 A 
ATOM     11  C   UNL d   1      45.420 -15.484  44.955  0.00  0.00     0.000 A 
ATOM     12  C   UNL d   1      44.743 -15.030  44.817  0.00  0.00     0.000 A 
ATOM     13  C   UNL d   1      44.844 -14.206  44.669  0.00  0.00     0.003 A 
ENDBRANCH   1   8
TORSDOF 4
ENDMDL
MODEL 2
REMARK VINA RESULT:       2.9      7.302      8.046
REMARK  4 active torsions:
REMARK  status: ('A' for Active; 'I' for Inactive)
REMARK    1  A    between atoms: C_2  and  C_1 
REMARK    2  A    between atoms: C_4  and  C_1 
REMARK    3  A    between atoms: C_5  and  C_2 
REMARK    4  A    between atoms: N_6  and  C_5 
ROOT
ATOM      1  C   UNL d   1      44.532 -15.777  36.572  0.00  0.00     0.197 C 
ATOM      2  O   UNL d   1      44.614 -16.586  36.398  0.00  0.00    -0.286 OA
ENDROOT
BRANCH   1   3
ATOM      3  C   UNL d   1      43.797 -15.438  36.619  0.00  0.00     0.061 C 
BRANCH   3   4
ATOM      4  C   UNL d   1      43.139 -15.843  36.360  0.00  0.00     0.084 C 
BRANCH   4   5
ATOM      5  N   UNL d   1      42.395 -15.662  36.670  0.00  0.00    -0.300 N 
ATOM      6  C   UNL d   1      42.332 -15.159  37.316  0.00  0.00     0.100 C 
ATOM      7  C   UNL d   1      41.719 -15.986  36.330  0.00  0.00     0.100 C 
ENDBRANCH   4   5
ENDBRANCH   3   4
ENDBRANCH   1   3
BRANCH   1   8
ATOM      8  C   UNL d   1      45.218 -15.300  36.702  0.00  0.00     0.039 A 
ATOM      9  C   UNL d   1      45.942 -15.515  36.366  0.00  0.00     0.003 A 
ATOM     10  C   UNL d   1      46.604 -15.061  36.487  0.00  0.00     0.000 A 
ATOM     11  C   UNL d   1      46.550 -14.379  36.950  0.00  0.00     0.000 A 
ATOM     12  C   UNL d   1      45.834 -14.148  37.294  0.00  0.00     0.000 A 
ATOM     13  C   UNL d   1      45.157 -14.631  37.158  0.00  0.00     0.003 A 
ENDBRANCH   1   8
TORSDOF 4
ENDMDL
MODEL 3
REMARK VINA RESULT:       4.3      7.127      7.964
REMARK  4 active torsions:
REMARK  status: ('A' for Active; 'I' for Inactive)
REMARK    1  A    between atoms: C_2  and  C_1 
REMARK    2  A    between atoms: C_4  and  C_1 
REMARK    3  A    between atoms: C_5  and  C_2 
REMARK    4  A    between atoms: N_6  and  C_5 
ROOT
ATOM      1  C   UNL d   1      44.406 -15.898  36.695  0.00  0.00     0.197 C 
ATOM      2  O   UNL d   1      44.612 -16.619  36.336  0.00  0.00    -0.286 OA
ENDROOT
BRANCH   1   3
ATOM      3  C   UNL d   1      44.981 -15.391  36.959  0.00  0.00     0.061 C 
BRANCH   3   4
ATOM      4  C   UNL d   1      45.695 -15.338  36.570  0.00  0.00     0.084 C 
BRANCH   4   5
ATOM      5  N   UNL d   1      46.305 -14.883  36.890  0.00  0.00    -0.300 N 
ATOM      6  C   UNL d   1      46.635 -14.272  36.450  0.00  0.00     0.100 C 
ATOM      7  C   UNL d   1      46.583 -15.042  37.648  0.00  0.00     0.100 C 
ENDBRANCH   4   5
ENDBRANCH   3   4
ENDBRANCH   1   3
BRANCH   1   8
ATOM      8  C   UNL d   1      43.592 -15.687  36.787  0.00  0.00     0.039 A 
ATOM      9  C   UNL d   1      43.374 -15.106  37.334  0.00  0.00     0.003 A 
ATOM     10  C   UNL d   1      42.594 -14.900  37.426  0.00  0.00     0.000 A 
ATOM     11  C   UNL d   1      42.018 -15.274  36.969  0.00  0.00     0.000 A 
ATOM     12  C   UNL d   1      42.217 -15.857  36.417  0.00  0.00     0.000 A 
ATOM     13  C   UNL d   1      43.031 -16.059  36.334  0.00  0.00     0.003 A 
ENDBRANCH   1   8
TORSDOF 4
ENDMDL
