MODEL 1
REMARK VINA RESULT:      60.0      0.000      0.000
REMARK  6 active torsions:
REMARK  status: ('A' for Active; 'I' for Inactive)
REMARK    1  A    between atoms: C_4  and  C_1 
REMARK    2  A    between atoms: N_7  and  C_2 
REMARK    3  A    between atoms: C_6  and  C_4 
REMARK    4  A    between atoms: C_8  and  C_4 
REMARK    5  A    between atoms: O_13  and  C_6 
REMARK    6  A    between atoms: C_19  and  O_13 
ROOT
ATOM      1  C   UNL d   1      45.774 -18.007  42.777  0.00  0.00     0.122 A 
ATOM      2  C   UNL d   1      46.018 -18.584  42.237  0.00  0.00     0.166 A 
ATOM      3  N   UNL d   1      46.298 -19.312  42.516  0.00  0.00    -0.225 NA
ATOM      4  N   UNL d   1      45.808 -18.151  43.592  0.00  0.00    -0.241 NA
ATOM      5  C   UNL d   1      46.333 -19.459  43.329  0.00  0.00     0.101 A 
ATOM      6  C   UNL d   1      46.086 -18.875  43.865  0.00  0.00     0.099 A 
ATOM      7  C   UNL d   1      46.612 -20.185  43.605  0.00  0.00     0.021 A 
ATOM      8  C   UNL d   1      46.123 -19.025  44.674  0.00  0.00     0.021 A 
ATOM      9  C   UNL d   1      46.402 -19.750  44.951  0.00  0.00     0.002 A 
ATOM     10  C   UNL d   1      46.646 -20.329  44.420  0.00  0.00     0.002 A 
ENDROOT
BRANCH   1  11
ATOM     11  C   UNL d   1      45.491 -17.271  42.505  0.00  0.00     0.105 C 
BRANCH  11  12
ATOM     12  C   UNL d   1      45.843 -16.568  42.750  0.00  0.00     0.303 C 
ATOM     13  O   UNL d   1      46.616 -16.394  42.517  0.00  0.00    -0.259 OA
BRANCH  12  14
ATOM     14  O   UNL d   1      45.425 -16.039  43.225  0.00  0.00    -0.273 OA
BRANCH  14  15
ATOM     15  C   UNL d   1      45.414 -15.361  43.691  0.00  0.00     0.103 A 
ATOM     16  C   UNL d   1      45.235 -15.425  44.491  0.00  0.00     0.025 A 
ATOM     17  C   UNL d   1      45.224 -14.751  44.955  0.00  0.00     0.002 A 
ATOM     18  C   UNL d   1      45.389 -14.010  44.634  0.00  0.00     0.000 A 
ATOM     19  C   UNL d   1      45.568 -13.959  43.828  0.00  0.00     0.002 A 
ATOM     20  C   UNL d   1      45.580 -14.633  43.358  0.00  0.00     0.025 A 
ENDBRANCH  14  15
ENDBRANCH  12  14
ENDBRANCH  11  12
BRANCH  11  21
ATOM     21  C   UNL d   1      44.841 -17.243  41.978  0.00  0.00     0.129 C 
ATOM     22  N   UNL d   1      44.610 -16.457  41.487  0.00  0.00    -0.146 N 
ENDBRANCH  11  21
ENDBRANCH   1  11
BRANCH   2  23
ATOM     23  N   UNL d   1      45.982 -18.434  41.427  0.00  0.00    -0.285 N 
ATOM     24  C   UNL d   1      45.274 -18.575  41.015  0.00  0.00     0.101 A 
ATOM     25  C   UNL d   1      45.228 -18.429  40.208  0.00  0.00     0.100 A 
ATOM     26  N   UNL d   1      45.892 -18.140  39.806  0.00  0.00    -0.299 N 
ATOM     27  C   UNL d   1      46.600 -17.999  40.218  0.00  0.00     0.100 A 
ATOM     28  C   UNL d   1      45.853 -17.989  38.984  0.00  0.00     0.100 C 
ATOM     29  C   UNL d   1      46.642 -18.148  41.032  0.00  0.00     0.101 A 
ENDBRANCH   2  23
TORSDOF 6
ENDMDL
MODEL 2
REMARK VINA RESULT:      61.9      0.870      3.098
REMARK  6 active torsions:
REMARK  status: ('A' for Active; 'I' for Inactive)
REMARK    1  A    between atoms: C_4  and  C_1 
REMARK    2  A    between atoms: N_7  and  C_2 
REMARK    3  A    between atoms: C_6  and  C_4 
REMARK    4  A    between atoms: C_8  and  C_4 
REMARK    5  A    between atoms: O_13  and  C_6 
REMARK    6  A    between atoms: C_19  and  O_13 
ROOT
ATOM      1  C   UNL d   1      45.815 -17.696  42.226  0.00  0.00     0.122 A 
ATOM      2  C   UNL d   1      45.785 -18.520  42.189  0.00  0.00     0.166 A 
ATOM      3  N   UNL d   1      45.692 -18.894  41.455  0.00  0.00    -0.225 NA
ATOM      4  N   UNL d   1      45.754 -17.240  41.536  0.00  0.00    -0.241 NA
ATOM      5  C   UNL d   1      45.630 -18.443  40.766  0.00  0.00     0.101 A 
ATOM      6  C   UNL d   1      45.662 -17.614  40.810  0.00  0.00     0.099 A 
ATOM      7  C   UNL d   1      45.538 -18.816  40.036  0.00  0.00     0.021 A 
ATOM      8  C   UNL d   1      45.600 -17.167  40.120  0.00  0.00     0.021 A 
ATOM      9  C   UNL d   1      45.507 -17.541  39.390  0.00  0.00     0.002 A 
ATOM     10  C   UNL d   1      45.476 -18.361  39.346  0.00  0.00     0.002 A 
ENDROOT
BRANCH   1  11
ATOM     11  C   UNL d   1      45.908 -17.311  42.960  0.00  0.00     0.105 C 
BRANCH  11  12
ATOM     12  C   UNL d   1      45.392 -16.713  43.191  0.00  0.00     0.303 C 
ATOM     13  O   UNL d   1      44.576 -16.834  43.139  0.00  0.00    -0.259 OA
BRANCH  12  14
ATOM     14  O   UNL d   1      45.686 -15.997  43.474  0.00  0.00    -0.273 OA
BRANCH  14  15
ATOM     15  C   UNL d   1      45.580 -15.313  43.919  0.00  0.00     0.103 A 
ATOM     16  C   UNL d   1      46.189 -15.049  44.404  0.00  0.00     0.025 A 
ATOM     17  C   UNL d   1      46.085 -14.369  44.847  0.00  0.00     0.002 A 
ATOM     18  C   UNL d   1      45.379 -13.945  44.814  0.00  0.00     0.000 A 
ATOM     19  C   UNL d   1      44.774 -14.220  44.323  0.00  0.00     0.002 A 
ATOM     20  C   UNL d   1      44.874 -14.901  43.877  0.00  0.00     0.025 A 
ENDBRANCH  14  15
ENDBRANCH  12  14
ENDBRANCH  11  12
BRANCH  11  21
ATOM     21  C   UNL d   1      46.534 -17.532  43.471  0.00  0.00     0.129 C 
ATOM     22  N   UNL d   1      46.532 -17.333  44.405  0.00  0.00    -0.146 N 
ENDBRANCH  11  21
ENDBRANCH   1  11
BRANCH   2  23
ATOM     23  N   UNL d   1      45.846 -18.968  42.879  0.00  0.00    -0.285 N 
ATOM     24  C   UNL d   1      46.568 -19.335  43.066  0.00  0.00     0.101 A 
ATOM     25  C   UNL d   1      46.639 -19.783  43.751  0.00  0.00     0.100 A 
ATOM     26  N   UNL d   1      45.988 -19.867  44.256  0.00  0.00    -0.299 N 
ATOM     27  C   UNL d   1      45.266 -19.499  44.069  0.00  0.00     0.100 A 
ATOM     28  C   UNL d   1      46.053 -20.321  44.955  0.00  0.00     0.100 C 
ATOM     29  C   UNL d   1      45.198 -19.048  43.377  0.00  0.00     0.101 A 
ENDBRANCH   2  23
TORSDOF 6
ENDMDL
