MODEL 1
REMARK VINA RESULT:      -7.2      0.000      0.000
REMARK  4 active torsions:
REMARK  status: ('A' for Active; 'I' for Inactive)
REMARK    1  A    between atoms: C_12  and  N_1 
REMARK    2  A    between atoms: N_2  and  C_11 
REMARK    3  A    between atoms: C_11  and  C_15 
REMARK    4  A    between atoms: C_15  and  C_12 
ROOT
ATOM      1  N   UNL d   1     -46.598  13.043  23.075  0.00  0.00    -0.303 N 
ATOM      2  C   UNL d   1     -46.068  13.503  22.616  0.00  0.00     0.064 A 
ATOM      3  C   UNL d   1     -45.380  13.037  22.486  0.00  0.00     0.018 A 
ATOM      4  C   UNL d   1     -45.494  12.305  22.863  0.00  0.00     0.018 A 
ATOM      5  C   UNL d   1     -46.238  12.308  23.223  0.00  0.00     0.064 A 
ATOM      6  C   UNL d   1     -46.498  11.646  23.640  0.00  0.00     0.018 A 
ATOM      7  C   UNL d   1     -45.010  11.639  22.920  0.00  0.00     0.002 A 
ATOM      8  C   UNL d   1     -46.014  10.980  23.698  0.00  0.00     0.002 A 
ATOM      9  C   UNL d   1     -45.270  10.977  23.338  0.00  0.00     0.000 A 
ATOM     10  C   UNL d   1     -46.197  14.272  22.341  0.00  0.00     0.019 C 
ATOM     11  C   UNL d   1     -44.717  13.267  22.062  0.00  0.00     0.002 C 
ATOM     12  C   UNL d   1     -44.787  10.311  23.395  0.00  0.00     0.000 C 
ENDROOT
BRANCH   1  13
ATOM     13  C   UNL d   1     -47.346  13.291  23.330  0.00  0.00     0.124 C 
BRANCH  13  14
ATOM     14  C   UNL d   1     -47.951  13.392  22.774  0.00  0.00     0.232 C 
ATOM     15  O   UNL d   1     -48.127  12.788  22.236  0.00  0.00    -0.283 OA
BRANCH  14  16
ATOM     16  C   UNL d   1     -48.378  14.094  22.758  0.00  0.00     0.144 C 
BRANCH  16  17
ATOM     17  N   UNL d   1     -49.173  14.105  22.992  0.00  0.00    -0.225 N 
ATOM     18  N   UNL d   1     -49.615  13.452  23.229  0.00  0.00    -0.165 NA
ATOM     19  C   UNL d   1     -50.381  13.711  23.414  0.00  0.00     0.109 A 
ATOM     20  C   UNL d   1     -51.002  13.237  23.675  0.00  0.00     0.023 C 
ATOM     21  C   UNL d   1     -50.406  14.530  23.287  0.00  0.00     0.072 A 
ATOM     22  C   UNL d   1     -49.664  14.775  23.028  0.00  0.00     0.091 A 
ATOM     23 BR   UNL d   1     -51.062  15.017  23.402  0.00  0.00    -0.046 Br
ATOM     24  C   UNL d   1     -49.445  15.547  22.837  0.00  0.00     0.021 C 
ENDBRANCH  16  17
ENDBRANCH  14  16
ENDBRANCH  13  14
ENDBRANCH   1  13
TORSDOF 4
ENDMDL
MODEL 2
REMARK VINA RESULT:      -6.4      2.188      4.751
REMARK  4 active torsions:
REMARK  status: ('A' for Active; 'I' for Inactive)
REMARK    1  A    between atoms: C_12  and  N_1 
REMARK    2  A    between atoms: N_2  and  C_11 
REMARK    3  A    between atoms: C_11  and  C_15 
REMARK    4  A    between atoms: C_15  and  C_12 
ROOT
ATOM      1  N   UNL d   1     -47.268  13.331  23.230  0.00  0.00    -0.303 N 
ATOM      2  C   UNL d   1     -47.295  14.124  22.960  0.00  0.00     0.064 A 
ATOM      3  C   UNL d   1     -48.092  14.294  22.758  0.00  0.00     0.018 A 
ATOM      4  C   UNL d   1     -48.543  13.611  22.905  0.00  0.00     0.018 A 
ATOM      5  C   UNL d   1     -48.039  13.022  23.193  0.00  0.00     0.064 A 
ATOM      6  C   UNL d   1     -48.340  12.279  23.387  0.00  0.00     0.018 A 
ATOM      7  C   UNL d   1     -49.348  13.456  22.810  0.00  0.00     0.002 A 
ATOM      8  C   UNL d   1     -49.145  12.124  23.292  0.00  0.00     0.002 A 
ATOM      9  C   UNL d   1     -49.649  12.713  23.004  0.00  0.00     0.000 A 
ATOM     10  C   UNL d   1     -46.654  14.644  22.903  0.00  0.00     0.019 C 
ATOM     11  C   UNL d   1     -48.374  15.008  22.469  0.00  0.00     0.002 C 
ATOM     12  C   UNL d   1     -50.454  12.558  22.909  0.00  0.00     0.000 C 
ENDROOT
BRANCH   1  13
ATOM     13  C   UNL d   1     -46.586  12.937  23.486  0.00  0.00     0.124 C 
BRANCH  13  14
ATOM     14  C   UNL d   1     -46.114  12.541  22.932  0.00  0.00     0.232 C 
ATOM     15  O   UNL d   1     -45.736  12.963  22.329  0.00  0.00    -0.283 OA
BRANCH  14  16
ATOM     16  C   UNL d   1     -46.023  11.726  22.983  0.00  0.00     0.144 C 
BRANCH  16  17
ATOM     17  N   UNL d   1     -45.267  11.395  23.069  0.00  0.00    -0.225 N 
ATOM     18  N   UNL d   1     -44.558  11.747  22.841  0.00  0.00    -0.165 NA
ATOM     19  C   UNL d   1     -43.940  11.226  23.027  0.00  0.00     0.109 A 
ATOM     20  C   UNL d   1     -43.138  11.361  22.892  0.00  0.00     0.023 C 
ATOM     21  C   UNL d   1     -44.275  10.551  23.371  0.00  0.00     0.072 A 
ATOM     22  C   UNL d   1     -45.091  10.652  23.398  0.00  0.00     0.091 A 
ATOM     23 BR   UNL d   1     -43.862   9.890  23.641  0.00  0.00    -0.046 Br
ATOM     24  C   UNL d   1     -45.640  10.113  23.698  0.00  0.00     0.021 C 
ENDBRANCH  16  17
ENDBRANCH  14  16
ENDBRANCH  13  14
ENDBRANCH   1  13
TORSDOF 4
ENDMDL
MODEL 3
REMARK VINA RESULT:      -6.1      8.126     10.041
REMARK  4 active torsions:
REMARK  status: ('A' for Active; 'I' for Inactive)
REMARK    1  A    between atoms: C_12  and  N_1 
REMARK    2  A    between atoms: N_2  and  C_11 
REMARK    3  A    between atoms: C_11  and  C_15 
REMARK    4  A    between atoms: C_15  and  C_12 
ROOT
ATOM      1  N   UNL d   1     -39.697  15.113  19.656  0.00  0.00    -0.303 N 
ATOM      2  C   UNL d   1     -40.425  15.458  19.889  0.00  0.00     0.064 A 
ATOM      3  C   UNL d   1     -40.550  15.261  20.696  0.00  0.00     0.018 A 
ATOM      4  C   UNL d   1     -39.904  14.802  20.949  0.00  0.00     0.018 A 
ATOM      5  C   UNL d   1     -39.383  14.711  20.313  0.00  0.00     0.064 A 
ATOM      6  C   UNL d   1     -38.688  14.276  20.408  0.00  0.00     0.018 A 
ATOM      7  C   UNL d   1     -39.730  14.458  21.678  0.00  0.00     0.002 A 
ATOM      8  C   UNL d   1     -38.514  13.932  21.137  0.00  0.00     0.002 A 
ATOM      9  C   UNL d   1     -39.036  14.023  21.772  0.00  0.00     0.000 A 
ATOM     10  C   UNL d   1     -40.928  15.909  19.412  0.00  0.00     0.019 C 
ATOM     11  C   UNL d   1     -41.195  15.484  21.151  0.00  0.00     0.002 C 
ATOM     12  C   UNL d   1     -38.862  13.679  22.502  0.00  0.00     0.000 C 
ENDROOT
BRANCH   1  13
ATOM     13  C   UNL d   1     -39.362  15.170  18.901  0.00  0.00     0.124 C 
BRANCH  13  14
ATOM     14  C   UNL d   1     -39.678  14.721  18.282  0.00  0.00     0.232 C 
ATOM     15  O   UNL d   1     -40.002  13.974  18.432  0.00  0.00    -0.283 OA
BRANCH  14  16
ATOM     16  C   UNL d   1     -39.670  15.019  17.516  0.00  0.00     0.144 C 
BRANCH  16  17
ATOM     17  N   UNL d   1     -39.152  14.704  16.951  0.00  0.00    -0.225 N 
ATOM     18  N   UNL d   1     -38.848  13.938  16.949  0.00  0.00    -0.165 NA
ATOM     19  C   UNL d   1     -38.356  13.856  16.287  0.00  0.00     0.109 A 
ATOM     20  C   UNL d   1     -37.940  13.178  16.074  0.00  0.00     0.023 C 
ATOM     21  C   UNL d   1     -38.360  14.579  15.881  0.00  0.00     0.072 A 
ATOM     22  C   UNL d   1     -38.849  15.102  16.287  0.00  0.00     0.091 A 
ATOM     23 BR   UNL d   1     -37.945  14.747  15.188  0.00  0.00    -0.046 Br
ATOM     24  C   UNL d   1     -39.010  15.883  16.075  0.00  0.00     0.021 C 
ENDBRANCH  16  17
ENDBRANCH  14  16
ENDBRANCH  13  14
ENDBRANCH   1  13
TORSDOF 4
ENDMDL
MODEL 4
REMARK VINA RESULT:      -6.0      9.049      9.818
REMARK  4 active torsions:
REMARK  status: ('A' for Active; 'I' for Inactive)
REMARK    1  A    between atoms: C_12  and  N_1 
REMARK    2  A    between atoms: N_2  and  C_11 
REMARK    3  A    between atoms: C_11  and  C_15 
REMARK    4  A    between atoms: C_15  and  C_12 
ROOT
ATOM      1  N   UNL d   1     -39.209  14.661  18.687  0.00  0.00    -0.303 N 
ATOM      2  C   UNL d   1     -38.895  14.040  18.217  0.00  0.00     0.064 A 
ATOM      3  C   UNL d   1     -39.315  14.039  17.490  0.00  0.00     0.018 A 
ATOM      4  C   UNL d   1     -39.877  14.652  17.519  0.00  0.00     0.018 A 
ATOM      5  C   UNL d   1     -39.812  15.032  18.250  0.00  0.00     0.064 A 
ATOM      6  C   UNL d   1     -40.306  15.667  18.431  0.00  0.00     0.018 A 
ATOM      7  C   UNL d   1     -40.436  14.907  16.969  0.00  0.00     0.002 A 
ATOM      8  C   UNL d   1     -40.865  15.922  17.881  0.00  0.00     0.002 A 
ATOM      9  C   UNL d   1     -40.930  15.542  17.150  0.00  0.00     0.000 A 
ATOM     10  C   UNL d   1     -38.285  13.524  18.431  0.00  0.00     0.019 C 
ATOM     11  C   UNL d   1     -39.191  13.523  16.864  0.00  0.00     0.002 C 
ATOM     12  C   UNL d   1     -41.490  15.797  16.600  0.00  0.00     0.000 C 
ENDROOT
BRANCH   1  13
ATOM     13  C   UNL d   1     -38.953  14.857  19.449  0.00  0.00     0.124 C 
BRANCH  13  14
ATOM     14  C   UNL d   1     -39.183  14.385  20.089  0.00  0.00     0.232 C 
ATOM     15  O   UNL d   1     -39.977  14.174  20.186  0.00  0.00    -0.283 OA
BRANCH  14  16
ATOM     16  C   UNL d   1     -38.619  14.126  20.628  0.00  0.00     0.144 C 
BRANCH  16  17
ATOM     17  N   UNL d   1     -38.648  14.379  21.417  0.00  0.00    -0.225 N 
ATOM     18  N   UNL d   1     -38.917  15.112  21.679  0.00  0.00    -0.165 NA
ATOM     19  C   UNL d   1     -38.849  15.133  22.505  0.00  0.00     0.109 A 
ATOM     20  C   UNL d   1     -39.057  15.764  22.991  0.00  0.00     0.023 C 
ATOM     21  C   UNL d   1     -38.537  14.405  22.749  0.00  0.00     0.072 A 
ATOM     22  C   UNL d   1     -38.412  13.939  22.082  0.00  0.00     0.091 A 
ATOM     23 BR   UNL d   1     -38.377  14.184  23.528  0.00  0.00    -0.046 Br
ATOM     24  C   UNL d   1     -38.107  13.172  22.072  0.00  0.00     0.021 C 
ENDBRANCH  16  17
ENDBRANCH  14  16
ENDBRANCH  13  14
ENDBRANCH   1  13
TORSDOF 4
ENDMDL
MODEL 5
REMARK VINA RESULT:      -5.9      1.883      4.522
REMARK  4 active torsions:
REMARK  status: ('A' for Active; 'I' for Inactive)
REMARK    1  A    between atoms: C_12  and  N_1 
REMARK    2  A    between atoms: N_2  and  C_11 
REMARK    3  A    between atoms: C_11  and  C_15 
REMARK    4  A    between atoms: C_15  and  C_12 
ROOT
ATOM      1  N   UNL d   1     -48.170  13.679  23.081  0.00  0.00    -0.303 N 
ATOM      2  C   UNL d   1     -48.447  14.419  22.800  0.00  0.00     0.064 A 
ATOM      3  C   UNL d   1     -49.286  14.384  22.785  0.00  0.00     0.018 A 
ATOM      4  C   UNL d   1     -49.515  13.631  23.055  0.00  0.00     0.018 A 
ATOM      5  C   UNL d   1     -48.833  13.200  23.236  0.00  0.00     0.064 A 
ATOM      6  C   UNL d   1     -48.895  12.427  23.519  0.00  0.00     0.018 A 
ATOM      7  C   UNL d   1     -50.258  13.289  23.156  0.00  0.00     0.002 A 
ATOM      8  C   UNL d   1     -49.639  12.085  23.620  0.00  0.00     0.002 A 
ATOM      9  C   UNL d   1     -50.321  12.516  23.439  0.00  0.00     0.000 A 
ATOM     10  C   UNL d   1     -47.981  15.064  22.577  0.00  0.00     0.019 C 
ATOM     11  C   UNL d   1     -49.789  14.986  22.546  0.00  0.00     0.002 C 
ATOM     12  C   UNL d   1     -51.064  12.174  23.540  0.00  0.00     0.000 C 
ENDROOT
BRANCH   1  13
ATOM     13  C   UNL d   1     -47.374  13.475  23.183  0.00  0.00     0.124 C 
BRANCH  13  14
ATOM     14  C   UNL d   1     -46.923  13.259  22.523  0.00  0.00     0.232 C 
ATOM     15  O   UNL d   1     -47.275  12.855  21.892  0.00  0.00    -0.283 OA
BRANCH  14  16
ATOM     16  C   UNL d   1     -46.124  13.448  22.495  0.00  0.00     0.144 C 
BRANCH  16  17
ATOM     17  N   UNL d   1     -45.552  12.854  22.575  0.00  0.00    -0.225 N 
ATOM     18  N   UNL d   1     -45.621  12.176  23.038  0.00  0.00    -0.165 NA
ATOM     19  C   UNL d   1     -44.924  11.735  22.957  0.00  0.00     0.109 A 
ATOM     20  C   UNL d   1     -44.761  11.016  23.326  0.00  0.00     0.023 C 
ATOM     21  C   UNL d   1     -44.425  12.147  22.440  0.00  0.00     0.072 A 
ATOM     22  C   UNL d   1     -44.808  12.836  22.203  0.00  0.00     0.091 A 
ATOM     23 BR   UNL d   1     -43.671  11.909  22.202  0.00  0.00    -0.046 Br
ATOM     24  C   UNL d   1     -44.510  13.408  21.689  0.00  0.00     0.021 C 
ENDBRANCH  16  17
ENDBRANCH  14  16
ENDBRANCH  13  14
ENDBRANCH   1  13
TORSDOF 4
ENDMDL
