MODEL 1
REMARK VINA RESULT:      -7.0      0.000      0.000
REMARK  3 active torsions:
REMARK  status: ('A' for Active; 'I' for Inactive)
REMARK    1  A    between atoms: N_5  and  C_1 
REMARK    2  A    between atoms: N_8  and  N_5 
REMARK    3  A    between atoms: C_7  and  N_8 
ROOT
ATOM      1  C   UNL d   1     -47.444  13.610  22.867  0.00  0.00     0.162 A 
ATOM      2  C   UNL d   1     -46.691  13.933  22.949  0.00  0.00     0.299 A 
ATOM      3  N   UNL d   1     -46.196  13.347  23.258  0.00  0.00    -0.207 NA
ATOM      4  C   UNL d   1     -47.418  12.822  23.125  0.00  0.00     0.042 A 
ATOM      5  C   UNL d   1     -46.647  12.659  23.367  0.00  0.00     0.086 A 
ATOM      6  O   UNL d   1     -46.468  14.706  22.757  0.00  0.00    -0.263 OA
ATOM      7  C   UNL d   1     -48.002  12.236  23.168  0.00  0.00     0.003 A 
ATOM      8  C   UNL d   1     -46.460  11.911  23.651  0.00  0.00     0.019 A 
ATOM      9  C   UNL d   1     -47.801  11.493  23.455  0.00  0.00     0.000 A 
ATOM     10  C   UNL d   1     -47.027  11.329  23.697  0.00  0.00     0.002 A 
ENDROOT
BRANCH   1  11
ATOM     11  N   UNL d   1     -48.115  14.000  22.577  0.00  0.00    -0.141 NA
BRANCH  11  12
ATOM     12  N   UNL d   1     -48.418  14.658  22.989  0.00  0.00    -0.115 NA
BRANCH  12  13
ATOM     13  C   UNL d   1     -49.138  14.995  22.752  0.00  0.00     0.260 C 
ATOM     14  S   UNL d   1     -49.697  15.225  23.315  0.00  0.00    -0.034 SA
ATOM     15  N   UNL d   1     -49.292  15.097  21.940  0.00  0.00    -0.113 N 
ENDBRANCH  12  13
ENDBRANCH  11  12
ENDBRANCH   1  11
TORSDOF 3
ENDMDL
MODEL 2
REMARK VINA RESULT:      -6.7      1.945      2.441
REMARK  3 active torsions:
REMARK  status: ('A' for Active; 'I' for Inactive)
REMARK    1  A    between atoms: N_5  and  C_1 
REMARK    2  A    between atoms: N_8  and  N_5 
REMARK    3  A    between atoms: C_7  and  N_8 
ROOT
ATOM      1  C   UNL d   1     -48.253  12.384  23.295  0.00  0.00     0.162 A 
ATOM      2  C   UNL d   1     -47.910  11.665  23.504  0.00  0.00     0.299 A 
ATOM      3  N   UNL d   1     -47.089  11.759  23.486  0.00  0.00    -0.207 NA
ATOM      4  C   UNL d   1     -47.643  12.928  23.147  0.00  0.00     0.042 A 
ATOM      5  C   UNL d   1     -46.925  12.542  23.265  0.00  0.00     0.086 A 
ATOM      6  O   UNL d   1     -48.315  10.970  23.698  0.00  0.00    -0.263 OA
ATOM      7  C   UNL d   1     -47.658  13.724  22.920  0.00  0.00     0.003 A 
ATOM      8  C   UNL d   1     -46.221  12.953  23.156  0.00  0.00     0.019 A 
ATOM      9  C   UNL d   1     -46.947  14.123  22.814  0.00  0.00     0.000 A 
ATOM     10  C   UNL d   1     -46.225  13.735  22.933  0.00  0.00     0.002 A 
ENDROOT
BRANCH   1  11
ATOM     11  N   UNL d   1     -49.064  12.543  23.241  0.00  0.00    -0.141 NA
BRANCH  11  12
ATOM     12  N   UNL d   1     -49.507  12.209  22.620  0.00  0.00    -0.115 NA
BRANCH  12  13
ATOM     13  C   UNL d   1     -50.301  12.429  22.518  0.00  0.00     0.260 C 
ATOM     14  S   UNL d   1     -50.556  12.752  21.801  0.00  0.00    -0.034 SA
ATOM     15  N   UNL d   1     -50.837  12.320  23.145  0.00  0.00    -0.113 N 
ENDBRANCH  12  13
ENDBRANCH  11  12
ENDBRANCH   1  11
TORSDOF 3
ENDMDL
MODEL 3
REMARK VINA RESULT:      -6.4      2.062      2.940
REMARK  3 active torsions:
REMARK  status: ('A' for Active; 'I' for Inactive)
REMARK    1  A    between atoms: N_5  and  C_1 
REMARK    2  A    between atoms: N_8  and  N_5 
REMARK    3  A    between atoms: C_7  and  N_8 
ROOT
ATOM      1  C   UNL d   1     -48.235  12.193  22.983  0.00  0.00     0.162 A 
ATOM      2  C   UNL d   1     -48.144  11.537  23.472  0.00  0.00     0.299 A 
ATOM      3  N   UNL d   1     -48.896  11.280  23.698  0.00  0.00    -0.207 NA
ATOM      4  C   UNL d   1     -49.048  12.346  22.904  0.00  0.00     0.042 A 
ATOM      5  C   UNL d   1     -49.456  11.782  23.345  0.00  0.00     0.086 A 
ATOM      6  O   UNL d   1     -47.425  11.194  23.698  0.00  0.00    -0.263 OA
ATOM      7  C   UNL d   1     -49.461  12.928  22.485  0.00  0.00     0.003 A 
ATOM      8  C   UNL d   1     -50.277  11.801  23.368  0.00  0.00     0.019 A 
ATOM      9  C   UNL d   1     -50.282  12.936  22.516  0.00  0.00     0.000 A 
ATOM     10  C   UNL d   1     -50.692  12.369  22.959  0.00  0.00     0.002 A 
ENDROOT
BRANCH   1  11
ATOM     11  N   UNL d   1     -47.626  12.629  22.629  0.00  0.00    -0.141 NA
BRANCH  11  12
ATOM     12  N   UNL d   1     -47.133  13.105  23.102  0.00  0.00    -0.115 NA
BRANCH  12  13
ATOM     13  C   UNL d   1     -46.570  13.597  22.742  0.00  0.00     0.260 C 
ATOM     14  S   UNL d   1     -46.536  14.401  22.933  0.00  0.00    -0.034 SA
ATOM     15  N   UNL d   1     -46.041  13.273  22.187  0.00  0.00    -0.113 N 
ENDBRANCH  12  13
ENDBRANCH  11  12
ENDBRANCH   1  11
TORSDOF 3
ENDMDL
MODEL 4
REMARK VINA RESULT:      -6.3      1.686      2.289
REMARK  3 active torsions:
REMARK  status: ('A' for Active; 'I' for Inactive)
REMARK    1  A    between atoms: N_5  and  C_1 
REMARK    2  A    between atoms: N_8  and  N_5 
REMARK    3  A    between atoms: C_7  and  N_8 
ROOT
ATOM      1  C   UNL d   1     -48.586  13.805  22.556  0.00  0.00     0.162 A 
ATOM      2  C   UNL d   1     -48.692  14.621  22.524  0.00  0.00     0.299 A 
ATOM      3  N   UNL d   1     -47.955  14.978  22.639  0.00  0.00    -0.207 NA
ATOM      4  C   UNL d   1     -47.781  13.653  22.691  0.00  0.00     0.042 A 
ATOM      5  C   UNL d   1     -47.391  14.377  22.742  0.00  0.00     0.086 A 
ATOM      6  O   UNL d   1     -49.409  15.015  22.400  0.00  0.00    -0.263 OA
ATOM      7  C   UNL d   1     -47.359  12.945  22.772  0.00  0.00     0.003 A 
ATOM      8  C   UNL d   1     -46.580  14.394  22.875  0.00  0.00     0.019 A 
ATOM      9  C   UNL d   1     -46.549  12.976  22.905  0.00  0.00     0.000 A 
ATOM     10  C   UNL d   1     -46.158  13.704  22.956  0.00  0.00     0.002 A 
ENDROOT
BRANCH   1  11
ATOM     11  N   UNL d   1     -49.176  13.230  22.469  0.00  0.00    -0.141 NA
BRANCH  11  12
ATOM     12  N   UNL d   1     -49.713  13.095  23.092  0.00  0.00    -0.115 NA
BRANCH  12  13
ATOM     13  C   UNL d   1     -50.274  12.488  23.025  0.00  0.00     0.260 C 
ATOM     14  S   UNL d   1     -50.655  12.196  23.698  0.00  0.00    -0.034 SA
ATOM     15  N   UNL d   1     -50.450  12.177  22.273  0.00  0.00    -0.113 N 
ENDBRANCH  12  13
ENDBRANCH  11  12
ENDBRANCH   1  11
TORSDOF 3
ENDMDL
MODEL 5
REMARK VINA RESULT:      -6.2      1.762      3.466
REMARK  3 active torsions:
REMARK  status: ('A' for Active; 'I' for Inactive)
REMARK    1  A    between atoms: N_5  and  C_1 
REMARK    2  A    between atoms: N_8  and  N_5 
REMARK    3  A    between atoms: C_7  and  N_8 
ROOT
ATOM      1  C   UNL d   1     -48.550  13.767  22.124  0.00  0.00     0.162 A 
ATOM      2  C   UNL d   1     -48.952  13.386  21.515  0.00  0.00     0.299 A 
ATOM      3  N   UNL d   1     -49.719  13.691  21.486  0.00  0.00    -0.207 NA
ATOM      4  C   UNL d   1     -49.068  14.313  22.475  0.00  0.00     0.042 A 
ATOM      5  C   UNL d   1     -49.790  14.266  22.081  0.00  0.00     0.086 A 
ATOM      6  O   UNL d   1     -48.643  12.799  21.020  0.00  0.00    -0.263 OA
ATOM      7  C   UNL d   1     -48.969  14.843  23.103  0.00  0.00     0.003 A 
ATOM      8  C   UNL d   1     -50.413  14.749  22.314  0.00  0.00     0.019 A 
ATOM      9  C   UNL d   1     -49.599  15.321  23.326  0.00  0.00     0.000 A 
ATOM     10  C   UNL d   1     -50.325  15.273  22.930  0.00  0.00     0.002 A 
ENDROOT
BRANCH   1  11
ATOM     11  N   UNL d   1     -47.764  13.634  22.352  0.00  0.00    -0.141 NA
BRANCH  11  12
ATOM     12  N   UNL d   1     -47.566  12.932  22.753  0.00  0.00    -0.115 NA
BRANCH  12  13
ATOM     13  C   UNL d   1     -46.794  12.825  23.036  0.00  0.00     0.260 C 
ATOM     14  S   UNL d   1     -46.627  12.223  23.578  0.00  0.00    -0.034 SA
ATOM     15  N   UNL d   1     -46.189  13.330  22.769  0.00  0.00    -0.113 N 
ENDBRANCH  12  13
ENDBRANCH  11  12
ENDBRANCH   1  11
TORSDOF 3
ENDMDL
MODEL 6
REMARK VINA RESULT:      -4.7      8.603      9.552
REMARK  3 active torsions:
REMARK  status: ('A' for Active; 'I' for Inactive)
REMARK    1  A    between atoms: N_5  and  C_1 
REMARK    2  A    between atoms: N_8  and  N_5 
REMARK    3  A    between atoms: C_7  and  N_8 
ROOT
ATOM      1  C   UNL d   1     -40.103  14.227  18.341  0.00  0.00     0.162 A 
ATOM      2  C   UNL d   1     -40.659  14.690  17.949  0.00  0.00     0.299 A 
ATOM      3  N   UNL d   1     -40.975  15.226  18.493  0.00  0.00    -0.207 NA
ATOM      4  C   UNL d   1     -40.071  14.475  19.133  0.00  0.00     0.042 A 
ATOM      5  C   UNL d   1     -40.610  15.091  19.227  0.00  0.00     0.086 A 
ATOM      6  O   UNL d   1     -40.867  14.631  17.149  0.00  0.00    -0.263 OA
ATOM      7  C   UNL d   1     -39.619  14.213  19.775  0.00  0.00     0.003 A 
ATOM      8  C   UNL d   1     -40.696  15.447  19.963  0.00  0.00     0.019 A 
ATOM      9  C   UNL d   1     -39.715  14.577  20.505  0.00  0.00     0.000 A 
ATOM     10  C   UNL d   1     -40.256  15.197  20.600  0.00  0.00     0.002 A 
ENDROOT
BRANCH   1  11
ATOM     11  N   UNL d   1     -39.650  13.618  18.009  0.00  0.00    -0.141 NA
BRANCH  11  12
ATOM     12  N   UNL d   1     -39.030  13.806  17.485  0.00  0.00    -0.115 NA
BRANCH  12  13
ATOM     13  C   UNL d   1     -38.541  13.202  17.195  0.00  0.00     0.260 C 
ATOM     14  S   UNL d   1     -37.955  13.371  16.636  0.00  0.00    -0.034 SA
ATOM     15  N   UNL d   1     -38.646  12.424  17.472  0.00  0.00    -0.113 N 
ENDBRANCH  12  13
ENDBRANCH  11  12
ENDBRANCH   1  11
TORSDOF 3
ENDMDL
MODEL 7
REMARK VINA RESULT:      -4.6      8.088      9.098
REMARK  3 active torsions:
REMARK  status: ('A' for Active; 'I' for Inactive)
REMARK    1  A    between atoms: N_5  and  C_1 
REMARK    2  A    between atoms: N_8  and  N_5 
REMARK    3  A    between atoms: C_7  and  N_8 
ROOT
ATOM      1  C   UNL d   1     -40.261  14.520  18.589  0.00  0.00     0.162 A 
ATOM      2  C   UNL d   1     -39.654  14.046  18.298  0.00  0.00     0.299 A 
ATOM      3  N   UNL d   1     -39.565  14.211  17.493  0.00  0.00    -0.207 NA
ATOM      4  C   UNL d   1     -40.551  14.983  17.964  0.00  0.00     0.042 A 
ATOM      5  C   UNL d   1     -40.121  14.792  17.287  0.00  0.00     0.086 A 
ATOM      6  O   UNL d   1     -39.211  13.499  18.734  0.00  0.00    -0.263 OA
ATOM      7  C   UNL d   1     -41.151  15.552  17.931  0.00  0.00     0.003 A 
ATOM      8  C   UNL d   1     -40.292  15.170  16.577  0.00  0.00     0.019 A 
ATOM      9  C   UNL d   1     -41.312  15.922  17.215  0.00  0.00     0.000 A 
ATOM     10  C   UNL d   1     -40.880  15.730  16.535  0.00  0.00     0.002 A 
ENDROOT
BRANCH   1  11
ATOM     11  N   UNL d   1     -40.538  14.537  19.370  0.00  0.00    -0.141 NA
BRANCH  11  12
ATOM     12  N   UNL d   1     -40.065  14.873  19.967  0.00  0.00    -0.115 NA
BRANCH  12  13
ATOM     13  C   UNL d   1     -40.366  14.948  20.735  0.00  0.00     0.260 C 
ATOM     14  S   UNL d   1     -40.068  15.525  21.247  0.00  0.00    -0.034 SA
ATOM     15  N   UNL d   1     -40.973  14.437  20.987  0.00  0.00    -0.113 N 
ENDBRANCH  12  13
ENDBRANCH  11  12
ENDBRANCH   1  11
TORSDOF 3
ENDMDL
