MODEL 1
REMARK VINA RESULT:      -5.0      0.000      0.000
REMARK  1 active torsions:
REMARK  status: ('A' for Active; 'I' for Inactive)
REMARK    1  A    between atoms: C_7  and  N_1 
ROOT
ATOM      1  N   UNL d   1      56.117   0.217  33.458  0.00  0.00    -0.226 N 
ATOM      2  C   UNL d   1      56.620   0.344  34.099  0.00  0.00     0.359 A 
ATOM      3  C   UNL d   1      55.298   0.245  33.562  0.00  0.00     0.273 A 
ATOM      4  N   UNL d   1      56.303   0.499  34.845  0.00  0.00    -0.153 NA
ATOM      5  C   UNL d   1      55.484   0.527  34.950  0.00  0.00     0.288 A 
ATOM      6  C   UNL d   1      54.981   0.400  34.308  0.00  0.00     0.124 A 
ATOM      7  O   UNL d   1      57.441   0.316  33.999  0.00  0.00    -0.244 OA
ATOM      8  O   UNL d   1      54.794   0.119  32.921  0.00  0.00    -0.266 OA
ATOM      9  O   UNL d   1      55.167   0.682  35.696  0.00  0.00    -0.265 OA
ENDROOT
BRANCH   1  10
ATOM     10  C   UNL d   1      56.434   0.062  32.712  0.00  0.00     0.071 A 
ATOM     11  C   UNL d   1      56.500  -0.728  32.447  0.00  0.00     0.016 A 
ATOM     12  C   UNL d   1      56.247  -1.347  32.935  0.00  0.00     0.002 C 
ATOM     13  C   UNL d   1      56.815  -0.887  31.704  0.00  0.00     0.001 A 
ATOM     14  C   UNL d   1      57.067  -0.266  31.220  0.00  0.00     0.000 A 
ATOM     15  C   UNL d   1      57.001   0.512  31.484  0.00  0.00     0.002 A 
ATOM     16  C   UNL d   1      56.682   0.679  32.235  0.00  0.00     0.018 A 
ENDBRANCH   1  10
TORSDOF 1
ENDMDL
MODEL 2
REMARK VINA RESULT:      -4.2      1.497      3.084
REMARK  1 active torsions:
REMARK  status: ('A' for Active; 'I' for Inactive)
REMARK    1  A    between atoms: C_7  and  N_1 
ROOT
ATOM      1  N   UNL d   1      56.270  -0.566  32.612  0.00  0.00    -0.226 N 
ATOM      2  C   UNL d   1      56.268  -1.391  32.599  0.00  0.00     0.359 A 
ATOM      3  C   UNL d   1      56.643  -0.143  32.008  0.00  0.00     0.273 A 
ATOM      4  N   UNL d   1      56.639  -1.793  31.981  0.00  0.00    -0.153 NA
ATOM      5  C   UNL d   1      57.012  -1.370  31.377  0.00  0.00     0.288 A 
ATOM      6  C   UNL d   1      57.014  -0.545  31.390  0.00  0.00     0.124 A 
ATOM      7  O   UNL d   1      55.895  -1.818  33.202  0.00  0.00    -0.244 OA
ATOM      8  O   UNL d   1      56.645   0.682  32.020  0.00  0.00    -0.266 OA
ATOM      9  O   UNL d   1      57.384  -1.772  30.760  0.00  0.00    -0.265 OA
ENDROOT
BRANCH   1  10
ATOM     10  C   UNL d   1      55.898  -0.164  33.229  0.00  0.00     0.071 A 
ATOM     11  C   UNL d   1      56.360   0.182  33.834  0.00  0.00     0.016 A 
ATOM     12  C   UNL d   1      57.184   0.119  33.808  0.00  0.00     0.002 C 
ATOM     13  C   UNL d   1      55.993   0.583  34.452  0.00  0.00     0.001 A 
ATOM     14  C   UNL d   1      55.169   0.644  34.475  0.00  0.00     0.000 A 
ATOM     15  C   UNL d   1      54.716   0.302  33.877  0.00  0.00     0.002 A 
ATOM     16  C   UNL d   1      55.082  -0.106  33.249  0.00  0.00     0.018 A 
ENDBRANCH   1  10
TORSDOF 1
ENDMDL
MODEL 3
REMARK VINA RESULT:      -3.9      1.494      2.891
REMARK  1 active torsions:
REMARK  status: ('A' for Active; 'I' for Inactive)
REMARK    1  A    between atoms: C_7  and  N_1 
ROOT
ATOM      1  N   UNL d   1      57.081   0.214  32.247  0.00  0.00    -0.226 N 
ATOM      2  C   UNL d   1      57.758   0.523  32.603  0.00  0.00     0.359 A 
ATOM      3  C   UNL d   1      57.073   0.060  31.435  0.00  0.00     0.273 A 
ATOM      4  N   UNL d   1      58.428   0.678  32.146  0.00  0.00    -0.153 NA
ATOM      5  C   UNL d   1      58.420   0.525  31.334  0.00  0.00     0.288 A 
ATOM      6  C   UNL d   1      57.742   0.216  30.978  0.00  0.00     0.124 A 
ATOM      7  O   UNL d   1      57.770   0.678  33.415  0.00  0.00    -0.244 OA
ATOM      8  O   UNL d   1      56.396  -0.249  31.079  0.00  0.00    -0.266 OA
ATOM      9  O   UNL d   1      59.089   0.680  30.877  0.00  0.00    -0.265 OA
ENDROOT
BRANCH   1  10
ATOM     10  C   UNL d   1      56.411   0.059  32.704  0.00  0.00     0.071 A 
ATOM     11  C   UNL d   1      56.175  -0.733  32.834  0.00  0.00     0.016 A 
ATOM     12  C   UNL d   1      56.613  -1.352  32.505  0.00  0.00     0.002 C 
ATOM     13  C   UNL d   1      55.508  -0.892  33.290  0.00  0.00     0.001 A 
ATOM     14  C   UNL d   1      55.072  -0.270  33.618  0.00  0.00     0.000 A 
ATOM     15  C   UNL d   1      55.309   0.509  33.487  0.00  0.00     0.002 A 
ATOM     16  C   UNL d   1      55.983   0.676  33.027  0.00  0.00     0.018 A 
ENDBRANCH   1  10
TORSDOF 1
ENDMDL
MODEL 4
REMARK VINA RESULT:      -2.7      9.358     10.380
REMARK  1 active torsions:
REMARK  status: ('A' for Active; 'I' for Inactive)
REMARK    1  A    between atoms: C_7  and  N_1 
ROOT
ATOM      1  N   UNL d   1      59.726  -9.264  34.235  0.00  0.00    -0.226 N 
ATOM      2  C   UNL d   1      58.973  -9.599  34.285  0.00  0.00     0.359 A 
ATOM      3  C   UNL d   1      60.042  -9.061  33.499  0.00  0.00     0.273 A 
ATOM      4  N   UNL d   1      58.537  -9.731  33.596  0.00  0.00    -0.153 NA
ATOM      5  C   UNL d   1      58.852  -9.528  32.861  0.00  0.00     0.288 A 
ATOM      6  C   UNL d   1      59.605  -9.193  32.811  0.00  0.00     0.124 A 
ATOM      7  O   UNL d   1      58.654  -9.803  35.020  0.00  0.00    -0.244 OA
ATOM      8  O   UNL d   1      60.794  -8.727  33.449  0.00  0.00    -0.266 OA
ATOM      9  O   UNL d   1      58.416  -9.659  32.172  0.00  0.00    -0.265 OA
ENDROOT
BRANCH   1  10
ATOM     10  C   UNL d   1      60.163  -9.133  34.923  0.00  0.00     0.071 A 
ATOM     11  C   UNL d   1      60.054  -8.423  35.351  0.00  0.00     0.016 A 
ATOM     12  C   UNL d   1      59.512  -7.860  35.082  0.00  0.00     0.002 C 
ATOM     13  C   UNL d   1      60.487  -8.288  36.038  0.00  0.00     0.001 A 
ATOM     14  C   UNL d   1      61.029  -8.853  36.304  0.00  0.00     0.000 A 
ATOM     15  C   UNL d   1      61.133  -9.552  35.879  0.00  0.00     0.002 A 
ATOM     16  C   UNL d   1      60.698  -9.694  35.183  0.00  0.00     0.018 A 
ENDBRANCH   1  10
TORSDOF 1
ENDMDL
MODEL 5
REMARK VINA RESULT:      -2.3      2.939      4.186
REMARK  1 active torsions:
REMARK  status: ('A' for Active; 'I' for Inactive)
REMARK    1  A    between atoms: C_7  and  N_1 
ROOT
ATOM      1  N   UNL d   1      58.282  -0.470  30.327  0.00  0.00    -0.226 N 
ATOM      2  C   UNL d   1      57.951  -1.206  30.154  0.00  0.00     0.359 A 
ATOM      3  C   UNL d   1      58.041  -0.054  30.999  0.00  0.00     0.273 A 
ATOM      4  N   UNL d   1      57.377  -1.525  30.654  0.00  0.00    -0.153 NA
ATOM      5  C   UNL d   1      57.136  -1.109  31.326  0.00  0.00     0.288 A 
ATOM      6  C   UNL d   1      57.467  -0.373  31.499  0.00  0.00     0.124 A 
ATOM      7  O   UNL d   1      58.191  -1.625  29.483  0.00  0.00    -0.244 OA
ATOM      8  O   UNL d   1      58.372   0.682  31.172  0.00  0.00    -0.266 OA
ATOM      9  O   UNL d   1      56.562  -1.428  31.826  0.00  0.00    -0.265 OA
ENDROOT
BRANCH   1  10
ATOM     10  C   UNL d   1      58.856  -0.151  29.827  0.00  0.00     0.071 A 
ATOM     11  C   UNL d   1      58.624   0.356  29.203  0.00  0.00     0.016 A 
ATOM     12  C   UNL d   1      57.824   0.533  29.094  0.00  0.00     0.002 C 
ATOM     13  C   UNL d   1      59.193   0.677  28.702  0.00  0.00     0.001 A 
ATOM     14  C   UNL d   1      59.993   0.498  28.815  0.00  0.00     0.000 A 
ATOM     15  C   UNL d   1      60.218  -0.003  29.431  0.00  0.00     0.002 A 
ATOM     16  C   UNL d   1      59.646  -0.330  29.941  0.00  0.00     0.018 A 
ENDBRANCH   1  10
TORSDOF 1
ENDMDL
MODEL 6
REMARK VINA RESULT:      -2.0      5.038      6.033
REMARK  1 active torsions:
REMARK  status: ('A' for Active; 'I' for Inactive)
REMARK    1  A    between atoms: C_7  and  N_1 
ROOT
ATOM      1  N   UNL d   1      59.551  -1.543  29.247  0.00  0.00    -0.226 N 
ATOM      2  C   UNL d   1      58.814  -1.724  29.572  0.00  0.00     0.359 A 
ATOM      3  C   UNL d   1      59.946  -2.099  28.780  0.00  0.00     0.273 A 
ATOM      4  N   UNL d   1      58.473  -2.462  29.429  0.00  0.00    -0.153 NA
ATOM      5  C   UNL d   1      58.868  -3.018  28.963  0.00  0.00     0.288 A 
ATOM      6  C   UNL d   1      59.605  -2.837  28.638  0.00  0.00     0.124 A 
ATOM      7  O   UNL d   1      58.416  -1.170  30.039  0.00  0.00    -0.244 OA
ATOM      8  O   UNL d   1      60.683  -1.918  28.455  0.00  0.00    -0.266 OA
ATOM      9  O   UNL d   1      58.527  -3.756  28.821  0.00  0.00    -0.265 OA
ENDROOT
BRANCH   1  10
ATOM     10  C   UNL d   1      59.892  -0.805  29.389  0.00  0.00     0.071 A 
ATOM     11  C   UNL d   1      59.594  -0.130  28.994  0.00  0.00     0.016 A 
ATOM     12  C   UNL d   1      58.963  -0.208  28.467  0.00  0.00     0.002 C 
ATOM     13  C   UNL d   1      59.931   0.607  29.133  0.00  0.00     0.001 A 
ATOM     14  C   UNL d   1      60.563   0.682  29.662  0.00  0.00     0.000 A 
ATOM     15  C   UNL d   1      60.854   0.014  30.049  0.00  0.00     0.002 A 
ATOM     16  C   UNL d   1      60.516  -0.736  29.912  0.00  0.00     0.018 A 
ENDBRANCH   1  10
TORSDOF 1
ENDMDL
