MODEL 1
REMARK VINA RESULT:      13.7      0.000      0.000
REMARK  4 active torsions:
REMARK  status: ('A' for Active; 'I' for Inactive)
REMARK    1  A    between atoms: C_6  and  C_2 
REMARK    2  A    between atoms: C_8  and  N_3 
REMARK       I    between atoms: N_7  and  C_6 
REMARK    3  A    between atoms: C_16  and  N_7 
REMARK    4  A    between atoms: C_9  and  C_16 
ROOT
ATOM      1  C   UNL d   1      45.858 -15.178  44.236  0.00  0.00     0.211 A 
ATOM      2  C   UNL d   1      45.532 -15.931  44.359  0.00  0.00     0.199 A 
ATOM      3  N   UNL d   1      45.265 -14.617  44.325  0.00  0.00    -0.191 N 
ATOM      4  N   UNL d   1      44.569 -15.025  44.504  0.00  0.00    -0.058 NA
ATOM      5  N   UNL d   1      44.742 -15.833  44.523  0.00  0.00    -0.122 NA
ATOM      6  N   UNL d   1      46.646 -15.014  44.053  0.00  0.00    -0.125 N 
ENDROOT
BRANCH   2   7
ATOM      7  C   UNL d   1      45.943 -16.644  44.320  0.00  0.00     0.302 C 
ATOM      8  N   UNL d   1      45.871 -17.130  43.663  0.00  0.00    -0.203 NA
ATOM      9  O   UNL d   1      46.430 -16.865  44.950  0.00  0.00    -0.263 OA
BRANCH   8  10
ATOM     10  C   UNL d   1      46.288 -17.848  43.628  0.00  0.00     0.127 C 
BRANCH  10  11
ATOM     11  C   UNL d   1      46.237 -18.324  42.963  0.00  0.00     0.119 A 
ATOM     12  O   UNL d   1      46.363 -18.077  42.174  0.00  0.00    -0.304 OA
ATOM     13  C   UNL d   1      46.255 -18.731  41.689  0.00  0.00     0.123 A 
ATOM     14  C   UNL d   1      46.062 -19.388  42.178  0.00  0.00     0.029 A 
ATOM     15  C   UNL d   1      46.054 -19.126  42.946  0.00  0.00     0.028 A 
ENDBRANCH  10  11
ENDBRANCH   8  10
ENDBRANCH   2   7
BRANCH   3  16
ATOM     16  C   UNL d   1      45.343 -13.799  44.250  0.00  0.00     0.086 A 
ATOM     17  C   UNL d   1      45.671 -13.362  44.871  0.00  0.00     0.019 A 
ATOM     18  C   UNL d   1      45.749 -12.544  44.796  0.00  0.00     0.002 A 
ATOM     19  C   UNL d   1      45.501 -12.163  44.104  0.00  0.00     0.000 A 
ATOM     20  C   UNL d   1      45.175 -12.608  43.489  0.00  0.00     0.002 A 
ATOM     21  C   UNL d   1      45.095 -13.427  43.559  0.00  0.00     0.019 A 
ENDBRANCH   3  16
TORSDOF 4
ENDMDL
