MODEL 1
REMARK VINA RESULT:      18.4      0.000      0.000
REMARK  6 active torsions:
REMARK  status: ('A' for Active; 'I' for Inactive)
REMARK    1  A    between atoms: C_13  and  C_4 
REMARK    2  A    between atoms: N_16  and  C_5 
REMARK    3  A    between atoms: N_11  and  C_18 
REMARK    4  A    between atoms: C_21  and  N_16 
REMARK    5  A    between atoms: C_18  and  C_19 
REMARK    6  A    between atoms: C_19  and  C_21 
ROOT
ATOM      1  N   UNL d   1      46.303 -18.032  43.716  0.00  0.00    -0.195 N 
ATOM      2  C   UNL d   1      46.357 -18.739  43.297  0.00  0.00     0.167 A 
ATOM      3  N   UNL d   1      46.342 -17.414  43.179  0.00  0.00    -0.163 NA
ATOM      4  C   UNL d   1      46.428 -18.554  42.503  0.00  0.00     0.055 A 
ATOM      5  C   UNL d   1      46.226 -18.042  44.535  0.00  0.00     0.167 A 
ATOM      6  C   UNL d   1      46.420 -17.738  42.426  0.00  0.00     0.104 A 
ATOM      7  N   UNL d   1      46.333 -19.458  43.696  0.00  0.00    -0.227 NA
ATOM      8  C   UNL d   1      46.202 -18.766  44.941  0.00  0.00     0.058 A 
ATOM      9  C   UNL d   1      46.255 -19.473  44.522  0.00  0.00     0.086 A 
ATOM     10  C   UNL d   1      46.479 -17.322  41.717  0.00  0.00     0.023 C 
ATOM     11  C   UNL d   1      46.231 -20.201  44.920  0.00  0.00     0.021 C 
ENDROOT
BRANCH   5  12
ATOM     12  N   UNL d   1      46.173 -17.335  44.955  0.00  0.00    -0.225 NA
BRANCH  12  13
ATOM     13  C   UNL d   1      46.133 -16.619  44.552  0.00  0.00     0.102 C 
BRANCH  13  14
ATOM     14  C   UNL d   1      45.587 -16.041  44.786  0.00  0.00     0.040 C 
BRANCH  14  15
ATOM     15  C   UNL d   1      45.833 -15.264  44.901  0.00  0.00     0.083 C 
BRANCH  15  16
ATOM     16  N   UNL d   1      45.388 -14.634  44.585  0.00  0.00    -0.285 N 
ATOM     17  C   UNL d   1      44.724 -14.616  44.095  0.00  0.00     0.183 A 
ATOM     18  N   UNL d   1      44.526 -13.834  43.964  0.00  0.00    -0.222 NA
ATOM     19  C   UNL d   1      45.063 -13.364  44.369  0.00  0.00     0.120 A 
ATOM     20  C   UNL d   1      45.597 -13.856  44.754  0.00  0.00     0.102 A 
ENDBRANCH  15  16
ENDBRANCH  14  15
ENDBRANCH  13  14
ENDBRANCH  12  13
ENDBRANCH   5  12
BRANCH   4  21
ATOM     21  C   UNL d   1      46.501 -19.031  41.828  0.00  0.00     0.004 A 
ATOM     22  C   UNL d   1      46.543 -18.681  41.081  0.00  0.00     0.000 A 
ATOM     23  C   UNL d   1      46.616 -19.159  40.406  0.00  0.00     0.000 A 
ATOM     24  C   UNL d   1      46.647 -19.979  40.481  0.00  0.00     0.000 A 
ATOM     25  C   UNL d   1      46.604 -20.328  41.232  0.00  0.00     0.000 A 
ATOM     26  C   UNL d   1      46.531 -19.852  41.903  0.00  0.00     0.000 A 
ENDBRANCH   4  21
TORSDOF 6
ENDMDL
