MODEL 1
REMARK VINA RESULT:      49.7      0.000      0.000
REMARK  2 active torsions:
REMARK  status: ('A' for Active; 'I' for Inactive)
REMARK    1  A    between atoms: C_3  and  C_1 
REMARK       I    between atoms: N_6  and  C_3 
REMARK    2  A    between atoms: C_11  and  N_6 
ROOT
ATOM      1  C   UNL d   1     -51.131  26.107  33.525  0.00  0.00     0.121 A 
ATOM      2  C   UNL d   1     -51.873  26.074  33.390  0.00  0.00     0.305 A 
ATOM      3  C   UNL d   1     -50.688  25.418  33.600  0.00  0.00     0.012 A 
ATOM      4  O   UNL d   1     -52.297  25.299  33.308  0.00  0.00    -0.273 OA
ATOM      5  C   UNL d   1     -51.026  24.671  33.533  0.00  0.00     0.023 A 
ATOM      6  C   UNL d   1     -51.842  24.611  33.385  0.00  0.00     0.103 A 
ATOM      7  O   UNL d   1     -52.355  26.770  33.309  0.00  0.00    -0.259 OA
ATOM      8  C   UNL d   1     -50.579  23.999  33.608  0.00  0.00     0.002 A 
ATOM      9  C   UNL d   1     -52.194  23.880  33.315  0.00  0.00     0.025 A 
ATOM     10  C   UNL d   1     -50.922  23.252  33.540  0.00  0.00     0.000 A 
ATOM     11  C   UNL d   1     -51.738  23.191  33.393  0.00  0.00     0.002 A 
ENDROOT
BRANCH   1  12
ATOM     12  C   UNL d   1     -50.771  26.853  33.596  0.00  0.00     0.284 C 
ATOM     13  N   UNL d   1     -50.070  26.893  33.830  0.00  0.00    -0.208 NA
ATOM     14  O   UNL d   1     -51.190  27.536  33.408  0.00  0.00    -0.265 OA
BRANCH  13  15
ATOM     15  C   UNL d   1     -49.623  27.628  33.931  0.00  0.00     0.087 A 
ATOM     16  C   UNL d   1     -49.012  27.749  34.461  0.00  0.00     0.049 A 
ATOM     17  C   UNL d   1     -48.623  28.472  34.511  0.00  0.00     0.142 A 
ATOM     18  F   UNL d   1     -48.014  28.589  35.042  0.00  0.00    -0.204 F 
ATOM     19  C   UNL d   1     -48.861  29.096  34.007  0.00  0.00     0.030 A 
ATOM     20  C   UNL d   1     -49.478  28.969  33.475  0.00  0.00     0.004 A 
ATOM     21  C   UNL d   1     -49.862  28.254  33.425  0.00  0.00     0.019 A 
ENDBRANCH  13  15
ENDBRANCH   1  12
TORSDOF 2
ENDMDL
