MODEL 1
REMARK VINA RESULT:      -6.0      0.000      0.000
REMARK  5 active torsions:
REMARK  status: ('A' for Active; 'I' for Inactive)
REMARK    1  A    between atoms: N_7  and  S_1 
REMARK    2  A    between atoms: C_10  and  S_1 
REMARK    3  A    between atoms: C_2  and  N_4 
REMARK       I    between atoms: N_4  and  C_8 
REMARK    4  A    between atoms: C_8  and  C_13 
REMARK    5  A    between atoms: O_23  and  C_14 
ROOT
ATOM      1  C   UNL d   1     -48.283  14.132  22.946  0.00  0.00     0.104 A 
ATOM      2  C   UNL d   1     -46.922  13.226  22.959  0.00  0.00     0.058 A 
ATOM      3  C   UNL d   1     -48.343  13.336  23.008  0.00  0.00     0.013 A 
ATOM      4  C   UNL d   1     -47.535  14.512  22.888  0.00  0.00     0.013 A 
ATOM      5  C   UNL d   1     -47.664  12.868  23.015  0.00  0.00     0.005 A 
ATOM      6  C   UNL d   1     -46.855  14.048  22.896  0.00  0.00     0.005 A 
ENDROOT
BRANCH   2   7
ATOM      7  C   UNL d   1     -46.242  12.758  22.967  0.00  0.00     0.281 C 
ATOM      8  N   UNL d   1     -46.258  12.018  23.340  0.00  0.00    -0.183 NA
ATOM      9  O   UNL d   1     -45.549  13.026  22.603  0.00  0.00    -0.265 OA
BRANCH   8  10
ATOM     10  C   UNL d   1     -45.563  11.556  23.340  0.00  0.00     0.197 A 
ATOM     11  N   UNL d   1     -44.849  11.784  23.047  0.00  0.00    -0.219 NA
ATOM     12  C   UNL d   1     -44.304  11.166  23.153  0.00  0.00     0.112 A 
ATOM     13  C   UNL d   1     -43.527  11.097  22.966  0.00  0.00     0.112 A 
ATOM     14  C   UNL d   1     -44.714  10.573  23.513  0.00  0.00     0.052 A 
ATOM     15  C   UNL d   1     -43.132  10.393  23.149  0.00  0.00     0.026 A 
ATOM     16  C   UNL d   1     -43.537   9.799  23.509  0.00  0.00     0.003 A 
ATOM     17  C   UNL d   1     -44.319   9.870  23.696  0.00  0.00     0.008 A 
ATOM     18  S   UNL d   1     -45.493  10.801  23.635  0.00  0.00    -0.047 SA
BRANCH  13  19
ATOM     19  O   UNL d   1     -43.128  11.712  22.600  0.00  0.00    -0.327 OA
ATOM     20  C   UNL d   1     -42.437  11.576  22.211  0.00  0.00     0.181 C 
ENDBRANCH  13  19
ENDBRANCH   8  10
ENDBRANCH   2   7
BRANCH   1  21
ATOM     21  S   UNL d   1     -48.982  14.582  22.941  0.00  0.00     0.272 S 
ATOM     22  O   UNL d   1     -48.718  14.980  22.257  0.00  0.00    -0.200 OA
ATOM     23  O   UNL d   1     -49.242  14.184  23.622  0.00  0.00    -0.200 OA
BRANCH  21  24
ATOM     24  N   UNL d   1     -49.683  15.033  22.934  0.00  0.00    -0.225 N 
ATOM     25  C   UNL d   1     -49.906  15.472  23.614  0.00  0.00     0.118 A 
ATOM     26  C   UNL d   1     -50.593  15.911  23.599  0.00  0.00     0.142 A 
ATOM     27  O   UNL d   1     -51.063  15.922  22.917  0.00  0.00    -0.300 OA
ATOM     28  C   UNL d   1     -50.856  15.499  22.247  0.00  0.00     0.142 A 
ATOM     29  C   UNL d   1     -50.170  15.061  22.263  0.00  0.00     0.118 A 
ENDBRANCH  21  24
ENDBRANCH   1  21
TORSDOF 5
ENDMDL
MODEL 2
REMARK VINA RESULT:      -5.4      3.139      4.843
REMARK  5 active torsions:
REMARK  status: ('A' for Active; 'I' for Inactive)
REMARK    1  A    between atoms: N_7  and  S_1 
REMARK    2  A    between atoms: C_10  and  S_1 
REMARK    3  A    between atoms: C_2  and  N_4 
REMARK       I    between atoms: N_4  and  C_8 
REMARK    4  A    between atoms: C_8  and  C_13 
REMARK    5  A    between atoms: O_23  and  C_14 
ROOT
ATOM      1  C   UNL d   1     -45.081  12.671  22.322  0.00  0.00     0.104 A 
ATOM      2  C   UNL d   1     -43.628  12.954  21.627  0.00  0.00     0.058 A 
ATOM      3  C   UNL d   1     -45.001  13.291  21.820  0.00  0.00     0.013 A 
ATOM      4  C   UNL d   1     -44.434  12.164  22.498  0.00  0.00     0.013 A 
ATOM      5  C   UNL d   1     -44.273  13.444  21.463  0.00  0.00     0.005 A 
ATOM      6  C   UNL d   1     -43.706  12.314  22.144  0.00  0.00     0.005 A 
ENDROOT
BRANCH   2   7
ATOM      7  C   UNL d   1     -42.900  13.107  21.269  0.00  0.00     0.281 C 
ATOM      8  N   UNL d   1     -42.525  13.836  21.397  0.00  0.00    -0.183 NA
ATOM      9  O   UNL d   1     -42.546  12.537  20.786  0.00  0.00    -0.265 OA
BRANCH   8  10
ATOM     10  C   UNL d   1     -41.789  13.976  21.030  0.00  0.00     0.197 A 
ATOM     11  N   UNL d   1     -41.676  14.107  20.244  0.00  0.00    -0.219 NA
ATOM     12  C   UNL d   1     -40.865  14.222  20.103  0.00  0.00     0.112 A 
ATOM     13  C   UNL d   1     -40.452  14.371  19.432  0.00  0.00     0.112 A 
ATOM     14  C   UNL d   1     -40.508  14.156  20.822  0.00  0.00     0.052 A 
ATOM     15  C   UNL d   1     -39.631  14.459  19.479  0.00  0.00     0.026 A 
ATOM     16  C   UNL d   1     -39.270  14.394  20.195  0.00  0.00     0.003 A 
ATOM     17  C   UNL d   1     -39.687  14.244  20.869  0.00  0.00     0.008 A 
ATOM     18  S   UNL d   1     -41.067  14.004  21.404  0.00  0.00    -0.047 SA
BRANCH  13  19
ATOM     19  O   UNL d   1     -40.834  14.435  18.710  0.00  0.00    -0.327 OA
ATOM     20  C   UNL d   1     -40.418  14.392  18.023  0.00  0.00     0.181 C 
ENDBRANCH  13  19
ENDBRANCH   8  10
ENDBRANCH   2   7
BRANCH   1  21
ATOM     21  S   UNL d   1     -45.824  12.538  22.669  0.00  0.00     0.272 S 
ATOM     22  O   UNL d   1     -46.192  12.898  22.013  0.00  0.00    -0.200 OA
ATOM     23  O   UNL d   1     -45.455  12.180  23.321  0.00  0.00    -0.200 OA
BRANCH  21  24
ATOM     24  N   UNL d   1     -46.571  12.405  23.015  0.00  0.00    -0.225 N 
ATOM     25  C   UNL d   1     -46.747  11.660  23.360  0.00  0.00     0.118 A 
ATOM     26  C   UNL d   1     -47.480  11.539  23.696  0.00  0.00     0.142 A 
ATOM     27  O   UNL d   1     -48.042  12.147  23.697  0.00  0.00    -0.300 OA
ATOM     28  C   UNL d   1     -47.882  12.878  23.365  0.00  0.00     0.142 A 
ATOM     29  C   UNL d   1     -47.150  12.999  23.028  0.00  0.00     0.118 A 
ENDBRANCH  21  24
ENDBRANCH   1  21
TORSDOF 5
ENDMDL
MODEL 3
REMARK VINA RESULT:      -5.0      3.048      6.676
REMARK  5 active torsions:
REMARK  status: ('A' for Active; 'I' for Inactive)
REMARK    1  A    between atoms: N_7  and  S_1 
REMARK    2  A    between atoms: C_10  and  S_1 
REMARK    3  A    between atoms: C_2  and  N_4 
REMARK       I    between atoms: N_4  and  C_8 
REMARK    4  A    between atoms: C_8  and  C_13 
REMARK    5  A    between atoms: O_23  and  C_14 
ROOT
ATOM      1  C   UNL d   1     -42.042  13.683  20.984  0.00  0.00     0.104 A 
ATOM      2  C   UNL d   1     -43.486  13.166  21.553  0.00  0.00     0.058 A 
ATOM      3  C   UNL d   1     -42.635  14.213  21.089  0.00  0.00     0.013 A 
ATOM      4  C   UNL d   1     -42.147  12.868  21.159  0.00  0.00     0.013 A 
ATOM      5  C   UNL d   1     -43.367  13.964  21.376  0.00  0.00     0.005 A 
ATOM      6  C   UNL d   1     -42.877  12.616  21.446  0.00  0.00     0.005 A 
ENDROOT
BRANCH   2   7
ATOM      7  C   UNL d   1     -44.219  12.917  21.839  0.00  0.00     0.281 C 
ATOM      8  N   UNL d   1     -44.816  13.475  21.978  0.00  0.00    -0.183 NA
ATOM      9  O   UNL d   1     -44.356  12.115  21.988  0.00  0.00    -0.265 OA
BRANCH   8  10
ATOM     10  C   UNL d   1     -45.552  13.209  22.268  0.00  0.00     0.197 A 
ATOM     11  N   UNL d   1     -46.244  13.206  21.857  0.00  0.00    -0.219 NA
ATOM     12  C   UNL d   1     -46.845  12.899  22.342  0.00  0.00     0.112 A 
ATOM     13  C   UNL d   1     -47.627  12.774  22.214  0.00  0.00     0.112 A 
ATOM     14  C   UNL d   1     -46.489  12.722  23.043  0.00  0.00     0.052 A 
ATOM     15  C   UNL d   1     -48.085  12.452  22.823  0.00  0.00     0.026 A 
ATOM     16  C   UNL d   1     -47.734  12.274  23.525  0.00  0.00     0.003 A 
ATOM     17  C   UNL d   1     -46.947  12.401  23.652  0.00  0.00     0.008 A 
ATOM     18  S   UNL d   1     -45.690  12.909  23.011  0.00  0.00    -0.047 SA
BRANCH  13  19
ATOM     19  O   UNL d   1     -47.969  12.960  21.494  0.00  0.00    -0.327 OA
ATOM     20  C   UNL d   1     -48.759  12.864  21.380  0.00  0.00     0.181 C 
ENDBRANCH  13  19
ENDBRANCH   8  10
ENDBRANCH   2   7
BRANCH   1  21
ATOM     21  S   UNL d   1     -41.314  13.959  20.694  0.00  0.00     0.272 S 
ATOM     22  O   UNL d   1     -41.147  14.293  21.440  0.00  0.00    -0.200 OA
ATOM     23  O   UNL d   1     -41.483  13.625  19.953  0.00  0.00    -0.200 OA
BRANCH  21  24
ATOM     24  N   UNL d   1     -40.583  14.236  20.405  0.00  0.00    -0.225 N 
ATOM     25  C   UNL d   1     -39.940  14.353  20.933  0.00  0.00     0.118 A 
ATOM     26  C   UNL d   1     -39.228  14.624  20.641  0.00  0.00     0.142 A 
ATOM     27  O   UNL d   1     -39.144  14.781  19.833  0.00  0.00    -0.300 OA
ATOM     28  C   UNL d   1     -39.763  14.671  19.308  0.00  0.00     0.142 A 
ATOM     29  C   UNL d   1     -40.474  14.401  19.600  0.00  0.00     0.118 A 
ENDBRANCH  21  24
ENDBRANCH   1  21
TORSDOF 5
ENDMDL
MODEL 4
REMARK VINA RESULT:      -4.5      1.903      6.044
REMARK  5 active torsions:
REMARK  status: ('A' for Active; 'I' for Inactive)
REMARK    1  A    between atoms: N_7  and  S_1 
REMARK    2  A    between atoms: C_10  and  S_1 
REMARK    3  A    between atoms: C_2  and  N_4 
REMARK       I    between atoms: N_4  and  C_8 
REMARK    4  A    between atoms: C_8  and  C_13 
REMARK    5  A    between atoms: O_23  and  C_14 
ROOT
ATOM      1  C   UNL d   1     -44.834  12.984  22.087  0.00  0.00     0.104 A 
ATOM      2  C   UNL d   1     -46.378  12.888  22.619  0.00  0.00     0.058 A 
ATOM      3  C   UNL d   1     -45.255  13.658  22.192  0.00  0.00     0.013 A 
ATOM      4  C   UNL d   1     -45.169  12.229  22.245  0.00  0.00     0.013 A 
ATOM      5  C   UNL d   1     -46.035  13.622  22.460  0.00  0.00     0.005 A 
ATOM      6  C   UNL d   1     -45.947  12.190  22.512  0.00  0.00     0.005 A 
ENDROOT
BRANCH   2   7
ATOM      7  C   UNL d   1     -47.158  12.853  22.886  0.00  0.00     0.281 C 
ATOM      8  N   UNL d   1     -47.779  12.824  22.338  0.00  0.00    -0.183 NA
ATOM      9  O   UNL d   1     -47.318  12.846  23.698  0.00  0.00    -0.265 OA
BRANCH   8  10
ATOM     10  C   UNL d   1     -48.562  12.788  22.624  0.00  0.00     0.197 A 
ATOM     11  N   UNL d   1     -48.999  13.417  22.873  0.00  0.00    -0.219 NA
ATOM     12  C   UNL d   1     -49.747  13.147  23.113  0.00  0.00     0.112 A 
ATOM     13  C   UNL d   1     -50.389  13.531  23.405  0.00  0.00     0.112 A 
ATOM     14  C   UNL d   1     -49.738  12.350  22.999  0.00  0.00     0.052 A 
ATOM     15  C   UNL d   1     -51.064  13.094  23.595  0.00  0.00     0.026 A 
ATOM     16  C   UNL d   1     -51.061  12.298  23.482  0.00  0.00     0.003 A 
ATOM     17  C   UNL d   1     -50.414  11.913  23.189  0.00  0.00     0.008 A 
ATOM     18  S   UNL d   1     -49.012  12.115  22.697  0.00  0.00    -0.047 SA
BRANCH  13  19
ATOM     19  O   UNL d   1     -50.377  14.343  23.514  0.00  0.00    -0.327 OA
ATOM     20  C   UNL d   1     -51.063  14.761  23.539  0.00  0.00     0.181 C 
ENDBRANCH  13  19
ENDBRANCH   8  10
ENDBRANCH   2   7
BRANCH   1  21
ATOM     21  S   UNL d   1     -44.051  13.046  21.817  0.00  0.00     0.272 S 
ATOM     22  O   UNL d   1     -43.932  12.238  21.983  0.00  0.00    -0.200 OA
ATOM     23  O   UNL d   1     -44.172  13.851  21.652  0.00  0.00    -0.200 OA
BRANCH  21  24
ATOM     24  N   UNL d   1     -43.265  13.107  21.546  0.00  0.00    -0.225 N 
ATOM     25  C   UNL d   1     -43.056  13.704  20.994  0.00  0.00     0.118 A 
ATOM     26  C   UNL d   1     -42.285  13.756  20.734  0.00  0.00     0.142 A 
ATOM     27  O   UNL d   1     -41.716  13.224  21.014  0.00  0.00    -0.300 OA
ATOM     28  C   UNL d   1     -41.907  12.637  21.553  0.00  0.00     0.142 A 
ATOM     29  C   UNL d   1     -42.677  12.586  21.812  0.00  0.00     0.118 A 
ENDBRANCH  21  24
ENDBRANCH   1  21
TORSDOF 5
ENDMDL
MODEL 5
REMARK VINA RESULT:      -3.9      2.357      3.064
REMARK  5 active torsions:
REMARK  status: ('A' for Active; 'I' for Inactive)
REMARK    1  A    between atoms: N_7  and  S_1 
REMARK    2  A    between atoms: C_10  and  S_1 
REMARK    3  A    between atoms: C_2  and  N_4 
REMARK       I    between atoms: N_4  and  C_8 
REMARK    4  A    between atoms: C_8  and  C_13 
REMARK    5  A    between atoms: O_23  and  C_14 
ROOT
ATOM      1  C   UNL d   1     -47.553  12.786  22.689  0.00  0.00     0.104 A 
ATOM      2  C   UNL d   1     -45.995  13.160  22.362  0.00  0.00     0.058 A 
ATOM      3  C   UNL d   1     -46.989  12.627  23.235  0.00  0.00     0.013 A 
ATOM      4  C   UNL d   1     -47.362  13.141  21.951  0.00  0.00     0.013 A 
ATOM      5  C   UNL d   1     -46.200  12.811  23.082  0.00  0.00     0.005 A 
ATOM      6  C   UNL d   1     -46.575  13.326  21.795  0.00  0.00     0.005 A 
ENDROOT
BRANCH   2   7
ATOM      7  C   UNL d   1     -45.206  13.344  22.208  0.00  0.00     0.281 C 
ATOM      8  N   UNL d   1     -44.747  12.831  21.745  0.00  0.00    -0.183 NA
ATOM      9  O   UNL d   1     -44.874  14.037  22.514  0.00  0.00    -0.265 OA
BRANCH   8  10
ATOM     10  C   UNL d   1     -43.951  13.030  21.598  0.00  0.00     0.197 A 
ATOM     11  N   UNL d   1     -43.678  13.765  21.412  0.00  0.00    -0.219 NA
ATOM     12  C   UNL d   1     -42.854  13.729  21.310  0.00  0.00     0.112 A 
ATOM     13  C   UNL d   1     -42.311  14.289  21.123  0.00  0.00     0.112 A 
ATOM     14  C   UNL d   1     -42.652  12.960  21.440  0.00  0.00     0.052 A 
ATOM     15  C   UNL d   1     -41.516  14.070  21.062  0.00  0.00     0.026 A 
ATOM     16  C   UNL d   1     -41.309  13.304  21.191  0.00  0.00     0.003 A 
ATOM     17  C   UNL d   1     -41.857  12.741  21.378  0.00  0.00     0.008 A 
ATOM     18  S   UNL d   1     -43.320  12.517  21.619  0.00  0.00    -0.047 SA
BRANCH  13  19
ATOM     19  O   UNL d   1     -42.538  15.066  20.995  0.00  0.00    -0.327 OA
ATOM     20  C   UNL d   1     -41.985  15.637  20.874  0.00  0.00     0.181 C 
ENDBRANCH  13  19
ENDBRANCH   8  10
ENDBRANCH   2   7
BRANCH   1  21
ATOM     21  S   UNL d   1     -48.341  12.591  22.868  0.00  0.00     0.272 S 
ATOM     22  O   UNL d   1     -48.450  13.347  23.203  0.00  0.00    -0.200 OA
ATOM     23  O   UNL d   1     -48.231  11.839  22.533  0.00  0.00    -0.200 OA
BRANCH  21  24
ATOM     24  N   UNL d   1     -49.132  12.398  23.047  0.00  0.00    -0.225 N 
ATOM     25  C   UNL d   1     -49.302  11.728  23.525  0.00  0.00     0.118 A 
ATOM     26  C   UNL d   1     -50.078  11.546  23.696  0.00  0.00     0.142 A 
ATOM     27  O   UNL d   1     -50.690  12.018  23.400  0.00  0.00    -0.300 OA
ATOM     28  C   UNL d   1     -50.538  12.674  22.933  0.00  0.00     0.142 A 
ATOM     29  C   UNL d   1     -49.762  12.856  22.763  0.00  0.00     0.118 A 
ENDBRANCH  21  24
ENDBRANCH   1  21
TORSDOF 5
ENDMDL
MODEL 6
REMARK VINA RESULT:      -3.8      4.407      7.668
REMARK  5 active torsions:
REMARK  status: ('A' for Active; 'I' for Inactive)
REMARK    1  A    between atoms: N_7  and  S_1 
REMARK    2  A    between atoms: C_10  and  S_1 
REMARK    3  A    between atoms: C_2  and  N_4 
REMARK       I    between atoms: N_4  and  C_8 
REMARK    4  A    between atoms: C_8  and  C_13 
REMARK    5  A    between atoms: O_23  and  C_14 
ROOT
ATOM      1  C   UNL d   1     -40.429  14.420  19.726  0.00  0.00     0.104 A 
ATOM      2  C   UNL d   1     -41.667  13.927  20.673  0.00  0.00     0.058 A 
ATOM      3  C   UNL d   1     -41.082  14.105  19.385  0.00  0.00     0.013 A 
ATOM      4  C   UNL d   1     -40.367  14.503  20.560  0.00  0.00     0.013 A 
ATOM      5  C   UNL d   1     -41.713  13.853  19.852  0.00  0.00     0.005 A 
ATOM      6  C   UNL d   1     -40.995  14.252  21.030  0.00  0.00     0.005 A 
ENDROOT
BRANCH   2   7
ATOM      7  C   UNL d   1     -42.299  13.675  21.141  0.00  0.00     0.281 C 
ATOM      8  N   UNL d   1     -42.711  12.985  20.936  0.00  0.00    -0.183 NA
ATOM      9  O   UNL d   1     -42.519  14.108  21.810  0.00  0.00    -0.265 OA
BRANCH   8  10
ATOM     10  C   UNL d   1     -43.347  12.742  21.418  0.00  0.00     0.197 A 
ATOM     11  N   UNL d   1     -43.347  12.103  21.907  0.00  0.00    -0.219 NA
ATOM     12  C   UNL d   1     -44.084  12.054  22.288  0.00  0.00     0.112 A 
ATOM     13  C   UNL d   1     -44.379  11.534  22.823  0.00  0.00     0.112 A 
ATOM     14  C   UNL d   1     -44.513  12.676  22.011  0.00  0.00     0.052 A 
ATOM     15  C   UNL d   1     -45.150  11.640  23.101  0.00  0.00     0.026 A 
ATOM     16  C   UNL d   1     -45.583  12.260  22.828  0.00  0.00     0.003 A 
ATOM     17  C   UNL d   1     -45.285  12.783  22.289  0.00  0.00     0.008 A 
ATOM     18  S   UNL d   1     -44.071  13.110  21.473  0.00  0.00    -0.047 SA
BRANCH  13  19
ATOM     19  O   UNL d   1     -43.925  10.907  23.092  0.00  0.00    -0.327 OA
ATOM     20  C   UNL d   1     -44.204  10.418  23.665  0.00  0.00     0.181 C 
ENDBRANCH  13  19
ENDBRANCH   8  10
ENDBRANCH   2   7
BRANCH   1  21
ATOM     21  S   UNL d   1     -39.807  14.667  19.234  0.00  0.00     0.272 S 
ATOM     22  O   UNL d   1     -40.233  15.360  19.046  0.00  0.00    -0.200 OA
ATOM     23  O   UNL d   1     -39.385  13.977  19.422  0.00  0.00    -0.200 OA
BRANCH  21  24
ATOM     24  N   UNL d   1     -39.184  14.916  18.739  0.00  0.00    -0.225 N 
ATOM     25  C   UNL d   1     -38.778  15.633  18.904  0.00  0.00     0.118 A 
ATOM     26  C   UNL d   1     -38.170  15.869  18.415  0.00  0.00     0.142 A 
ATOM     27  O   UNL d   1     -37.956  15.404  17.764  0.00  0.00    -0.300 OA
ATOM     28  C   UNL d   1     -38.344  14.703  17.592  0.00  0.00     0.142 A 
ATOM     29  C   UNL d   1     -38.952  14.468  18.081  0.00  0.00     0.118 A 
ENDBRANCH  21  24
ENDBRANCH   1  21
TORSDOF 5
ENDMDL
