MODEL 1
REMARK VINA RESULT:      66.1      0.000      0.000
REMARK  6 active torsions:
REMARK  status: ('A' for Active; 'I' for Inactive)
REMARK    1  A    between atoms: C_6  and  N_1 
REMARK    2  A    between atoms: C_13  and  C_6 
REMARK    3  A    between atoms: N_12  and  C_22 
REMARK    4  A    between atoms: C_23  and  N_12 
REMARK    5  A    between atoms: C_22  and  C_13 
REMARK    6  A    between atoms: C_20  and  C_23 
ROOT
ATOM      1  N   UNL d   1      60.041  49.706  50.696  0.00  0.00    -0.303 N 
ATOM      2  C   UNL d   1      58.787  49.705  51.146  0.00  0.00     0.018 A 
ATOM      3  C   UNL d   1      59.293  49.705  51.804  0.00  0.00     0.018 A 
ATOM      4  C   UNL d   1      59.249  49.706  50.462  0.00  0.00     0.064 A 
ATOM      5  C   UNL d   1      60.071  49.705  51.515  0.00  0.00     0.064 A 
ATOM      6  C   UNL d   1      60.702  49.705  52.038  0.00  0.00     0.018 A 
ATOM      7  C   UNL d   1      58.887  49.706  49.725  0.00  0.00     0.018 A 
ATOM      8  C   UNL d   1      59.152  49.704  52.614  0.00  0.00     0.008 A 
ATOM      9  C   UNL d   1      57.964  49.705  51.092  0.00  0.00     0.008 A 
ATOM     10  C   UNL d   1      57.606  49.706  50.348  0.00  0.00     0.035 A 
ATOM     11  C   UNL d   1      59.787  49.704  53.148  0.00  0.00     0.035 A 
ATOM     12  C   UNL d   1      60.568  49.704  52.862  0.00  0.00     0.008 A 
ATOM     13  C   UNL d   1      58.068  49.706  49.665  0.00  0.00     0.008 A 
ATOM     14 BR   UNL d   1      56.786  49.705  50.291  0.00  0.00    -0.049 Br
ATOM     15 BR   UNL d   1      59.647  49.704  53.958  0.00  0.00    -0.049 Br
ENDROOT
BRANCH   1  16
ATOM     16  C   UNL d   1      60.688  49.706  50.183  0.00  0.00     0.124 C 
BRANCH  16  17
ATOM     17  C   UNL d   1      61.230  49.088  50.193  0.00  0.00     0.232 C 
ATOM     18  O   UNL d   1      61.936  49.166  50.623  0.00  0.00    -0.283 OA
BRANCH  17  19
ATOM     19  C   UNL d   1      61.076  48.390  49.779  0.00  0.00     0.142 C 
BRANCH  19  20
ATOM     20  N   UNL d   1      61.686  47.847  49.655  0.00  0.00    -0.237 NA
BRANCH  20  21
ATOM     21  C   UNL d   1      61.605  47.253  49.087  0.00  0.00     0.124 C 
BRANCH  21  22
ATOM     22  C   UNL d   1      61.926  46.514  49.214  0.00  0.00     0.119 A 
ATOM     23  O   UNL d   1      62.719  46.356  49.406  0.00  0.00    -0.304 OA
ATOM     24  C   UNL d   1      62.801  45.533  49.484  0.00  0.00     0.123 A 
ATOM     25  C   UNL d   1      62.063  45.191  49.340  0.00  0.00     0.029 A 
ATOM     26  C   UNL d   1      61.527  45.792  49.175  0.00  0.00     0.028 A 
ENDBRANCH  21  22
ENDBRANCH  20  21
ENDBRANCH  19  20
ENDBRANCH  17  19
ENDBRANCH  16  17
ENDBRANCH   1  16
TORSDOF 6
ENDMDL
MODEL 2
REMARK VINA RESULT:      66.3      0.416      2.281
REMARK  6 active torsions:
REMARK  status: ('A' for Active; 'I' for Inactive)
REMARK    1  A    between atoms: C_6  and  N_1 
REMARK    2  A    between atoms: C_13  and  C_6 
REMARK    3  A    between atoms: N_12  and  C_22 
REMARK    4  A    between atoms: C_23  and  N_12 
REMARK    5  A    between atoms: C_22  and  C_13 
REMARK    6  A    between atoms: C_20  and  C_23 
ROOT
ATOM      1  N   UNL d   1      60.275  49.622  50.485  0.00  0.00    -0.303 N 
ATOM      2  C   UNL d   1      59.453  49.668  51.532  0.00  0.00     0.018 A 
ATOM      3  C   UNL d   1      58.988  49.669  50.845  0.00  0.00     0.018 A 
ATOM      4  C   UNL d   1      60.247  49.640  51.310  0.00  0.00     0.064 A 
ATOM      5  C   UNL d   1      59.507  49.640  50.198  0.00  0.00     0.064 A 
ATOM      6  C   UNL d   1      59.210  49.633  49.434  0.00  0.00     0.018 A 
ATOM      7  C   UNL d   1      60.832  49.634  51.887  0.00  0.00     0.018 A 
ATOM      8  C   UNL d   1      58.175  49.691  50.723  0.00  0.00     0.008 A 
ATOM      9  C   UNL d   1      59.245  49.691  52.331  0.00  0.00     0.008 A 
ATOM     10  C   UNL d   1      59.838  49.685  52.904  0.00  0.00     0.035 A 
ATOM     11  C   UNL d   1      57.869  49.684  49.952  0.00  0.00     0.035 A 
ATOM     12  C   UNL d   1      58.386  49.655  49.302  0.00  0.00     0.008 A 
ATOM     13  C   UNL d   1      60.632  49.656  52.682  0.00  0.00     0.008 A 
ATOM     14 BR   UNL d   1      59.633  49.707  53.701  0.00  0.00    -0.049 Br
ATOM     15 BR   UNL d   1      57.056  49.707  49.830  0.00  0.00    -0.049 Br
ENDROOT
BRANCH   1  16
ATOM     16  C   UNL d   1      60.965  49.592  50.033  0.00  0.00     0.124 C 
BRANCH  16  17
ATOM     17  C   UNL d   1      61.432  48.916  50.029  0.00  0.00     0.232 C 
ATOM     18  O   UNL d   1      62.240  48.972  50.214  0.00  0.00    -0.283 OA
BRANCH  17  19
ATOM     19  C   UNL d   1      61.104  48.181  49.841  0.00  0.00     0.142 C 
BRANCH  19  20
ATOM     20  N   UNL d   1      61.573  47.607  49.478  0.00  0.00    -0.237 NA
BRANCH  20  21
ATOM     21  C   UNL d   1      61.782  46.921  49.888  0.00  0.00     0.124 C 
BRANCH  21  22
ATOM     22  C   UNL d   1      61.949  46.232  49.483  0.00  0.00     0.119 A 
ATOM     23  O   UNL d   1      62.699  45.999  49.212  0.00  0.00    -0.304 OA
ATOM     24  C   UNL d   1      62.613  45.266  48.832  0.00  0.00     0.123 A 
ATOM     25  C   UNL d   1      61.817  45.053  48.871  0.00  0.00     0.029 A 
ATOM     26  C   UNL d   1      61.410  45.645  49.270  0.00  0.00     0.028 A 
ENDBRANCH  21  22
ENDBRANCH  20  21
ENDBRANCH  19  20
ENDBRANCH  17  19
ENDBRANCH  16  17
ENDBRANCH   1  16
TORSDOF 6
ENDMDL
