MODEL 1
REMARK VINA RESULT:      -3.0      0.000      0.000
REMARK  6 active torsions:
REMARK  status: ('A' for Active; 'I' for Inactive)
REMARK    1  A    between atoms: N_2  and  S_1 
REMARK    2  A    between atoms: C_6  and  S_1 
REMARK    3  A    between atoms: C_4  and  N_2 
REMARK    4  A    between atoms: C_5  and  C_3 
REMARK    5  A    between atoms: O_12  and  C_5 
REMARK    6  A    between atoms: C_18  and  O_12 
ROOT
ATOM      1  C   UNL d   1     -42.207-122.863 -49.394  0.00  0.00     0.082 A 
ATOM      2  C   UNL d   1     -42.105-122.751 -50.199  0.00  0.00     0.099 A 
ATOM      3  C   UNL d   1     -42.932-122.683 -49.043  0.00  0.00     0.007 A 
ATOM      4  C   UNL d   1     -42.727-122.458 -50.652  0.00  0.00     0.020 A 
ATOM      5  C   UNL d   1     -43.551-122.392 -49.499  0.00  0.00     0.000 A 
ATOM      6  C   UNL d   1     -43.449-122.279 -50.304  0.00  0.00     0.002 A 
ENDROOT
BRANCH   2   7
ATOM      7  N   UNL d   1     -41.371-122.931 -50.564  0.00  0.00    -0.158 NA
BRANCH   7   8
ATOM      8  S   UNL d   1     -41.322-122.925 -51.385  0.00  0.00     0.285 S 
ATOM      9  O   UNL d   1     -41.522-123.748 -51.409  0.00  0.00    -0.198 OA
ATOM     10  O   UNL d   1     -41.126-122.127 -51.389  0.00  0.00    -0.198 OA
BRANCH   8  11
ATOM     11  C   UNL d   1     -41.277-122.940 -52.220  0.00  0.00     0.105 A 
ATOM     12  C   UNL d   1     -41.184-123.667 -52.610  0.00  0.00     0.013 A 
ATOM     13  C   UNL d   1     -41.140-123.682 -53.435  0.00  0.00     0.001 A 
ATOM     14  C   UNL d   1     -41.189-122.970 -53.848  0.00  0.00     0.000 A 
ATOM     15  C   UNL d   1     -41.280-122.246 -53.468  0.00  0.00     0.001 A 
ATOM     16  C   UNL d   1     -41.146-122.964 -54.673  0.00  0.00     0.000 C 
ATOM     17  C   UNL d   1     -41.325-122.231 -52.643  0.00  0.00     0.013 A 
ENDBRANCH   8  11
ENDBRANCH   7   8
ENDBRANCH   2   7
BRANCH   1  18
ATOM     18  C   UNL d   1     -41.563-123.166 -48.922  0.00  0.00     0.302 C 
ATOM     19  O   UNL d   1     -41.144-123.817 -49.177  0.00  0.00    -0.259 OA
BRANCH  18  20
ATOM     20  O   UNL d   1     -41.357-122.805 -48.203  0.00  0.00    -0.271 OA
BRANCH  20  21
ATOM     21  C   UNL d   1     -41.139-123.281 -47.551  0.00  0.00     0.126 C 
ATOM     22  C   UNL d   1     -41.123-122.962 -46.801  0.00  0.00     0.029 C 
ENDBRANCH  20  21
ENDBRANCH  18  20
ENDBRANCH   1  18
TORSDOF 6
ENDMDL
MODEL 2
REMARK VINA RESULT:      -2.6      1.221      4.349
REMARK  6 active torsions:
REMARK  status: ('A' for Active; 'I' for Inactive)
REMARK    1  A    between atoms: N_2  and  S_1 
REMARK    2  A    between atoms: C_6  and  S_1 
REMARK    3  A    between atoms: C_4  and  N_2 
REMARK    4  A    between atoms: C_5  and  C_3 
REMARK    5  A    between atoms: O_12  and  C_5 
REMARK    6  A    between atoms: C_18  and  O_12 
ROOT
ATOM      1  C   UNL d   1     -41.496-122.195 -52.537  0.00  0.00     0.082 A 
ATOM      2  C   UNL d   1     -41.574-122.365 -51.740  0.00  0.00     0.099 A 
ATOM      3  C   UNL d   1     -41.270-121.438 -52.776  0.00  0.00     0.007 A 
ATOM      4  C   UNL d   1     -41.425-121.777 -51.181  0.00  0.00     0.020 A 
ATOM      5  C   UNL d   1     -41.122-120.855 -52.216  0.00  0.00     0.000 A 
ATOM      6  C   UNL d   1     -41.200-121.024 -51.418  0.00  0.00     0.002 A 
ENDROOT
BRANCH   2   7
ATOM      7  N   UNL d   1     -41.804-123.131 -51.488  0.00  0.00    -0.158 NA
BRANCH   7   8
ATOM      8  S   UNL d   1     -41.928-123.268 -50.686  0.00  0.00     0.285 S 
ATOM      9  O   UNL d   1     -42.762-123.331 -50.820  0.00  0.00    -0.198 OA
ATOM     10  O   UNL d   1     -41.123-123.211 -50.531  0.00  0.00    -0.198 OA
BRANCH   8  11
ATOM     11  C   UNL d   1     -42.075-123.408 -49.875  0.00  0.00     0.105 A 
ATOM     12  C   UNL d   1     -41.438-123.570 -49.368  0.00  0.00     0.013 A 
ATOM     13  C   UNL d   1     -41.584-123.708 -48.566  0.00  0.00     0.001 A 
ATOM     14  C   UNL d   1     -42.362-123.682 -48.293  0.00  0.00     0.000 A 
ATOM     15  C   UNL d   1     -42.997-123.522 -48.790  0.00  0.00     0.001 A 
ATOM     16  C   UNL d   1     -42.527-123.817 -47.495  0.00  0.00     0.000 C 
ATOM     17  C   UNL d   1     -42.852-123.384 -49.591  0.00  0.00     0.013 A 
ENDBRANCH   8  11
ENDBRANCH   7   8
ENDBRANCH   2   7
BRANCH   1  18
ATOM     18  C   UNL d   1     -41.650-122.802 -53.118  0.00  0.00     0.302 C 
ATOM     19  O   UNL d   1     -41.396-123.565 -52.984  0.00  0.00    -0.259 OA
BRANCH  18  20
ATOM     20  O   UNL d   1     -42.057-122.625 -53.820  0.00  0.00    -0.271 OA
BRANCH  20  21
ATOM     21  C   UNL d   1     -41.851-123.022 -54.526  0.00  0.00     0.126 C 
ATOM     22  C   UNL d   1     -42.354-123.002 -55.167  0.00  0.00     0.029 C 
ENDBRANCH  20  21
ENDBRANCH  18  20
ENDBRANCH   1  18
TORSDOF 6
ENDMDL
MODEL 3
REMARK VINA RESULT:      -1.1      1.573      2.193
REMARK  6 active torsions:
REMARK  status: ('A' for Active; 'I' for Inactive)
REMARK    1  A    between atoms: N_2  and  S_1 
REMARK    2  A    between atoms: C_6  and  S_1 
REMARK    3  A    between atoms: C_4  and  N_2 
REMARK    4  A    between atoms: C_5  and  C_3 
REMARK    5  A    between atoms: O_12  and  C_5 
REMARK    6  A    between atoms: C_18  and  O_12 
ROOT
ATOM      1  C   UNL d   1     -41.599-122.293 -50.913  0.00  0.00     0.082 A 
ATOM      2  C   UNL d   1     -41.583-122.163 -51.721  0.00  0.00     0.099 A 
ATOM      3  C   UNL d   1     -41.377-121.690 -50.395  0.00  0.00     0.007 A 
ATOM      4  C   UNL d   1     -41.344-121.430 -52.012  0.00  0.00     0.020 A 
ATOM      5  C   UNL d   1     -41.139-120.960 -50.689  0.00  0.00     0.000 A 
ATOM      6  C   UNL d   1     -41.123-120.830 -51.497  0.00  0.00     0.002 A 
ENDROOT
BRANCH   2   7
ATOM      7  N   UNL d   1     -41.807-122.771 -52.255  0.00  0.00    -0.158 NA
BRANCH   7   8
ATOM      8  S   UNL d   1     -41.883-122.592 -53.054  0.00  0.00     0.285 S 
ATOM      9  O   UNL d   1     -41.171-123.020 -53.223  0.00  0.00    -0.198 OA
ATOM     10  O   UNL d   1     -42.575-122.171 -52.916  0.00  0.00    -0.198 OA
BRANCH   8  11
ATOM     11  C   UNL d   1     -41.942-122.421 -53.871  0.00  0.00     0.105 A 
ATOM     12  C   UNL d   1     -41.405-122.770 -54.399  0.00  0.00     0.013 A 
ATOM     13  C   UNL d   1     -41.463-122.601 -55.206  0.00  0.00     0.001 A 
ATOM     14  C   UNL d   1     -42.056-122.089 -55.463  0.00  0.00     0.000 A 
ATOM     15  C   UNL d   1     -42.591-121.740 -54.945  0.00  0.00     0.001 A 
ATOM     16  C   UNL d   1     -42.131-121.907 -56.266  0.00  0.00     0.000 C 
ATOM     17  C   UNL d   1     -42.533-121.909 -54.138  0.00  0.00     0.013 A 
ENDBRANCH   8  11
ENDBRANCH   7   8
ENDBRANCH   2   7
BRANCH   1  18
ATOM     18  C   UNL d   1     -41.847-123.052 -50.609  0.00  0.00     0.302 C 
ATOM     19  O   UNL d   1     -41.392-123.714 -50.752  0.00  0.00    -0.259 OA
BRANCH  18  20
ATOM     20  O   UNL d   1     -42.547-123.126 -50.169  0.00  0.00    -0.271 OA
BRANCH  20  21
ATOM     21  C   UNL d   1     -42.679-123.818 -49.719  0.00  0.00     0.126 C 
ATOM     22  C   UNL d   1     -43.175-123.795 -49.072  0.00  0.00     0.029 C 
ENDBRANCH  20  21
ENDBRANCH  18  20
ENDBRANCH   1  18
TORSDOF 6
ENDMDL
