MODEL 1
REMARK VINA RESULT:     164.7      0.000      0.000
REMARK  3 active torsions:
REMARK  status: ('A' for Active; 'I' for Inactive)
REMARK       I    between atoms: C_6  and  N_1 
REMARK    1  A    between atoms: C_11  and  C_5 
REMARK    2  A    between atoms: C_12  and  C_6 
REMARK    3  A    between atoms: C_27  and  N_10 
ROOT
ATOM      1  N   UNL d   1     -55.973-101.100 -43.375  0.00  0.00    -0.264 N 
ATOM      2  C   UNL d   1     -56.171-100.932 -44.165  0.00  0.00     0.198 A 
ATOM      3  C   UNL d   1     -56.557-100.760 -42.896  0.00  0.00     0.138 A 
ATOM      4  N   UNL d   1     -56.867-100.497 -44.162  0.00  0.00    -0.243 NA
ATOM      5  C   UNL d   1     -57.109-100.389 -43.382  0.00  0.00     0.105 A 
ATOM      6  C   UNL d   1     -55.324-101.519 -43.120  0.00  0.00     0.263 C 
ATOM      7  C   UNL d   1     -56.429-100.730 -44.923  0.00  0.00     0.041 A 
ATOM      8  C   UNL d   1     -55.487-101.365 -44.067  0.00  0.00     0.041 A 
ATOM      9  S   UNL d   1     -56.582-100.791 -42.065  0.00  0.00    -0.058 SA
ATOM     10  N   UNL d   1     -55.297-101.407 -45.478  0.00  0.00    -0.303 N 
ATOM     11  O   UNL d   1     -54.785-101.826 -43.671  0.00  0.00    -0.267 OA
ATOM     12  C   UNL d   1     -55.049-101.603 -44.724  0.00  0.00     0.080 A 
ATOM     13  C   UNL d   1     -55.982-100.973 -45.576  0.00  0.00     0.080 A 
ENDROOT
BRANCH   6  14
ATOM     14  C   UNL d   1     -55.201-101.640 -42.317  0.00  0.00     0.056 A 
ATOM     15  C   UNL d   1     -55.220-102.400 -42.015  0.00  0.00     0.005 A 
ATOM     16  C   UNL d   1     -55.097-102.525 -41.209  0.00  0.00     0.000 A 
ATOM     17  C   UNL d   1     -54.953-101.886 -40.707  0.00  0.00     0.000 A 
ATOM     18  C   UNL d   1     -54.934-101.116 -41.016  0.00  0.00     0.000 A 
ATOM     19  C   UNL d   1     -54.829-102.015 -39.899  0.00  0.00     0.000 C 
ATOM     20  C   UNL d   1     -55.057-100.995 -41.819  0.00  0.00     0.005 A 
ENDBRANCH   6  14
BRANCH   5  21
ATOM     21  C   UNL d   1     -57.780 -99.983 -43.135  0.00  0.00     0.020 A 
ATOM     22  C   UNL d   1     -58.367-100.381 -42.699  0.00  0.00     0.004 A 
ATOM     23  C   UNL d   1     -59.051 -99.964 -42.448  0.00  0.00     0.030 A 
ATOM     24  C   UNL d   1     -59.134 -99.161 -42.638  0.00  0.00     0.140 A 
ATOM     25  C   UNL d   1     -58.555 -98.777 -43.066  0.00  0.00     0.030 A 
ATOM     26  F   UNL d   1     -59.808 -98.755 -42.390  0.00  0.00    -0.204 F 
ATOM     27  C   UNL d   1     -57.876 -99.169 -43.321  0.00  0.00     0.004 A 
ENDBRANCH   5  21
BRANCH  10  28
ATOM     28  C   UNL d   1     -54.856-101.646 -46.142  0.00  0.00     0.080 C 
ATOM     29  C   UNL d   1     -55.098-102.304 -46.580  0.00  0.00     0.021 C 
ENDBRANCH  10  28
TORSDOF 3
ENDMDL
