MODEL 1
REMARK VINA RESULT:      -9.9      0.000      0.000
REMARK  2 active torsions:
REMARK  status: ('A' for Active; 'I' for Inactive)
REMARK    1  A    between atoms: C_7  and  C_1 
REMARK    2  A    between atoms: C_9  and  C_1 
ROOT
ATOM      1  C   UNL d   1     -47.250  13.541  22.870  0.00  0.00     0.240 A 
ATOM      2  S   UNL d   1     -47.942  13.104  22.964  0.00  0.00    -0.043 SA
ATOM      3  N   UNL d   1     -46.520  13.205  23.056  0.00  0.00    -0.199 NA
ATOM      4  C   UNL d   1     -47.901  12.335  23.243  0.00  0.00     0.181 A 
ATOM      5  N   UNL d   1     -47.166  11.983  23.435  0.00  0.00    -0.236 N 
ATOM      6  C   UNL d   1     -46.482  12.432  23.336  0.00  0.00     0.352 A 
ATOM      7  N   UNL d   1     -48.497  11.770  23.391  0.00  0.00    -0.219 NA
ATOM      8  O   UNL d   1     -45.750  12.100  23.522  0.00  0.00    -0.244 OA
ATOM      9  C   UNL d   1     -47.313  11.216  23.697  0.00  0.00     0.107 A 
ATOM     10  C   UNL d   1     -48.130  11.084  23.670  0.00  0.00     0.120 A 
ENDROOT
BRANCH   1  11
ATOM     11  C   UNL d   1     -46.558  13.979  22.776  0.00  0.00     0.429 C 
ATOM     12  F   UNL d   1     -45.926  14.377  22.687  0.00  0.00    -0.167 F 
ATOM     13  F   UNL d   1     -46.177  14.513  23.321  0.00  0.00    -0.167 F 
ATOM     14  F   UNL d   1     -46.033  14.013  22.096  0.00  0.00    -0.167 F 
ENDBRANCH   1  11
BRANCH   1  15
ATOM     15  C   UNL d   1     -47.983  13.871  22.685  0.00  0.00     0.016 A 
ATOM     16  C   UNL d   1     -48.389  14.302  23.253  0.00  0.00    -0.001 A 
ATOM     17  C   UNL d   1     -49.123  14.631  23.068  0.00  0.00    -0.000 A 
ATOM     18  C   UNL d   1     -49.450  14.530  22.316  0.00  0.00    -0.000 A 
ATOM     19  C   UNL d   1     -49.034  14.095  21.751  0.00  0.00    -0.000 A 
ATOM     20  C   UNL d   1     -50.184  14.859  22.131  0.00  0.00    -0.000 C 
ATOM     21  C   UNL d   1     -48.308  13.769  21.934  0.00  0.00    -0.001 A 
ENDBRANCH   1  15
TORSDOF 2
ENDMDL
MODEL 2
REMARK VINA RESULT:      -9.2      2.305      3.444
REMARK  2 active torsions:
REMARK  status: ('A' for Active; 'I' for Inactive)
REMARK    1  A    between atoms: C_7  and  C_1 
REMARK    2  A    between atoms: C_9  and  C_1 
ROOT
ATOM      1  C   UNL d   1     -48.732  12.884  22.947  0.00  0.00     0.240 A 
ATOM      2  S   UNL d   1     -48.437  13.651  22.884  0.00  0.00    -0.043 SA
ATOM      3  N   UNL d   1     -49.533  12.760  23.098  0.00  0.00    -0.199 NA
ATOM      4  C   UNL d   1     -48.944  14.289  22.972  0.00  0.00     0.181 A 
ATOM      5  N   UNL d   1     -49.759  14.175  23.126  0.00  0.00    -0.236 N 
ATOM      6  C   UNL d   1     -50.040  13.403  23.187  0.00  0.00     0.352 A 
ATOM      7  N   UNL d   1     -48.807  15.111  22.938  0.00  0.00    -0.219 NA
ATOM      8  O   UNL d   1     -50.841  13.274  23.338  0.00  0.00    -0.244 OA
ATOM      9  C   UNL d   1     -50.112  14.918  23.185  0.00  0.00     0.107 A 
ATOM     10  C   UNL d   1     -49.528  15.492  23.070  0.00  0.00     0.120 A 
ENDROOT
BRANCH   1  11
ATOM     11  C   UNL d   1     -49.026  12.117  23.009  0.00  0.00     0.429 C 
ATOM     12  F   UNL d   1     -49.295  11.417  23.064  0.00  0.00    -0.167 F 
ATOM     13  F   UNL d   1     -49.091  11.617  23.698  0.00  0.00    -0.167 F 
ATOM     14  F   UNL d   1     -49.347  11.613  22.392  0.00  0.00    -0.167 F 
ENDBRANCH   1  11
BRANCH   1  15
ATOM     15  C   UNL d   1     -47.932  13.016  22.795  0.00  0.00     0.016 A 
ATOM     16  C   UNL d   1     -47.672  13.093  22.022  0.00  0.00    -0.001 A 
ATOM     17  C   UNL d   1     -46.871  13.224  21.871  0.00  0.00    -0.000 A 
ATOM     18  C   UNL d   1     -46.331  13.279  22.494  0.00  0.00    -0.000 A 
ATOM     19  C   UNL d   1     -46.602  13.200  23.270  0.00  0.00    -0.000 A 
ATOM     20  C   UNL d   1     -45.530  13.411  22.343  0.00  0.00    -0.000 C 
ATOM     21  C   UNL d   1     -47.394  13.070  23.419  0.00  0.00    -0.001 A 
ENDBRANCH   1  15
TORSDOF 2
ENDMDL
MODEL 3
REMARK VINA RESULT:      -9.2      1.940      2.386
REMARK  2 active torsions:
REMARK  status: ('A' for Active; 'I' for Inactive)
REMARK    1  A    between atoms: C_7  and  C_1 
REMARK    2  A    between atoms: C_9  and  C_1 
ROOT
ATOM      1  C   UNL d   1     -48.614  14.312  22.713  0.00  0.00     0.240 A 
ATOM      2  S   UNL d   1     -48.346  13.548  22.863  0.00  0.00    -0.043 SA
ATOM      3  N   UNL d   1     -48.073  14.925  22.599  0.00  0.00    -0.199 NA
ATOM      4  C   UNL d   1     -47.540  13.400  22.899  0.00  0.00     0.181 A 
ATOM      5  N   UNL d   1     -46.983  14.014  22.785  0.00  0.00    -0.236 N 
ATOM      6  C   UNL d   1     -47.264  14.773  22.636  0.00  0.00     0.352 A 
ATOM      7  N   UNL d   1     -47.114  12.696  23.039  0.00  0.00    -0.219 NA
ATOM      8  O   UNL d   1     -46.728  15.389  22.522  0.00  0.00    -0.244 OA
ATOM      9  C   UNL d   1     -46.229  13.687  22.855  0.00  0.00     0.107 A 
ATOM     10  C   UNL d   1     -46.309  12.878  23.010  0.00  0.00     0.120 A 
ENDROOT
BRANCH   1  11
ATOM     11  C   UNL d   1     -48.882  15.076  22.563  0.00  0.00     0.429 C 
ATOM     12  F   UNL d   1     -49.127  15.773  22.423  0.00  0.00    -0.167 F 
ATOM     13  F   UNL d   1     -49.096  15.693  23.113  0.00  0.00    -0.167 F 
ATOM     14  F   UNL d   1     -49.020  15.458  21.805  0.00  0.00    -0.167 F 
ENDBRANCH   1  11
BRANCH   1  15
ATOM     15  C   UNL d   1     -49.148  13.694  22.827  0.00  0.00     0.016 A 
ATOM     16  C   UNL d   1     -49.419  13.526  23.583  0.00  0.00    -0.001 A 
ATOM     17  C   UNL d   1     -49.954  12.909  23.697  0.00  0.00    -0.000 A 
ATOM     18  C   UNL d   1     -50.217  12.458  23.056  0.00  0.00    -0.000 A 
ATOM     19  C   UNL d   1     -49.938  12.635  22.299  0.00  0.00    -0.000 A 
ATOM     20  C   UNL d   1     -50.752  11.840  23.170  0.00  0.00    -0.000 C 
ATOM     21  C   UNL d   1     -49.410  13.246  22.186  0.00  0.00    -0.001 A 
ENDBRANCH   1  15
TORSDOF 2
ENDMDL
MODEL 4
REMARK VINA RESULT:      -9.1      1.940      2.796
REMARK  2 active torsions:
REMARK  status: ('A' for Active; 'I' for Inactive)
REMARK    1  A    between atoms: C_7  and  C_1 
REMARK    2  A    between atoms: C_9  and  C_1 
ROOT
ATOM      1  C   UNL d   1     -48.567  13.889  22.889  0.00  0.00     0.240 A 
ATOM      2  S   UNL d   1     -48.295  13.119  22.999  0.00  0.00    -0.043 SA
ATOM      3  N   UNL d   1     -49.353  14.077  23.051  0.00  0.00    -0.199 NA
ATOM      4  C   UNL d   1     -48.810  12.542  23.270  0.00  0.00     0.181 A 
ATOM      5  N   UNL d   1     -49.611  12.722  23.438  0.00  0.00    -0.236 N 
ATOM      6  C   UNL d   1     -49.869  13.495  23.323  0.00  0.00     0.352 A 
ATOM      7  N   UNL d   1     -48.696  11.731  23.431  0.00  0.00    -0.219 NA
ATOM      8  O   UNL d   1     -50.654  13.689  23.484  0.00  0.00    -0.244 OA
ATOM      9  C   UNL d   1     -49.977  12.030  23.697  0.00  0.00     0.107 A 
ATOM     10  C   UNL d   1     -49.415  11.422  23.693  0.00  0.00     0.120 A 
ENDROOT
BRANCH   1  11
ATOM     11  C   UNL d   1     -48.837  14.659  22.778  0.00  0.00     0.429 C 
ATOM     12  F   UNL d   1     -49.085  15.362  22.675  0.00  0.00    -0.167 F 
ATOM     13  F   UNL d   1     -48.863  15.308  23.331  0.00  0.00    -0.167 F 
ATOM     14  F   UNL d   1     -49.168  15.015  22.069  0.00  0.00    -0.167 F 
ENDBRANCH   1  11
BRANCH   1  15
ATOM     15  C   UNL d   1     -47.781  13.693  22.729  0.00  0.00     0.016 A 
ATOM     16  C   UNL d   1     -47.574  13.419  21.985  0.00  0.00    -0.001 A 
ATOM     17  C   UNL d   1     -46.789  13.223  21.825  0.00  0.00    -0.000 A 
ATOM     18  C   UNL d   1     -46.210  13.302  22.411  0.00  0.00    -0.000 A 
ATOM     19  C   UNL d   1     -46.428  13.579  23.157  0.00  0.00    -0.000 A 
ATOM     20  C   UNL d   1     -45.425  13.106  22.251  0.00  0.00    -0.000 C 
ATOM     21  C   UNL d   1     -47.205  13.773  23.315  0.00  0.00    -0.001 A 
ENDBRANCH   1  15
TORSDOF 2
ENDMDL
