MODEL 1
REMARK VINA RESULT:      99.1      0.000      0.000
REMARK  6 active torsions:
REMARK  status: ('A' for Active; 'I' for Inactive)
REMARK    1  A    between atoms: N_8  and  S_1 
REMARK    2  A    between atoms: C_10  and  S_1 
REMARK    3  A    between atoms: C_2  and  N_6 
REMARK       I    between atoms: N_6  and  C_9 
REMARK    4  A    between atoms: C_9  and  C_15 
REMARK    5  A    between atoms: O_26  and  C_13 
REMARK    6  A    between atoms: O_27  and  C_14 
ROOT
ATOM      1  N   UNL d   1     -56.289 -99.105 -45.041  0.00  0.00    -0.183 NA
ATOM      2  C   UNL d   1     -55.635 -99.604 -44.932  0.00  0.00     0.281 C 
ATOM      3  O   UNL d   1     -55.061 -99.651 -45.521  0.00  0.00    -0.265 OA
ENDROOT
BRANCH   2   4
ATOM      4  C   UNL d   1     -55.576-100.035 -44.249  0.00  0.00     0.058 A 
ATOM      5  C   UNL d   1     -55.207 -99.726 -43.585  0.00  0.00     0.005 A 
ATOM      6  C   UNL d   1     -55.148-100.165 -42.892  0.00  0.00     0.013 A 
ATOM      7  C   UNL d   1     -55.464-100.930 -42.862  0.00  0.00     0.104 A 
ATOM      8  C   UNL d   1     -55.837-101.249 -43.528  0.00  0.00     0.013 A 
ATOM      9  C   UNL d   1     -55.892-100.801 -44.220  0.00  0.00     0.005 A 
BRANCH   7  10
ATOM     10  S   UNL d   1     -55.405-101.373 -42.167  0.00  0.00     0.272 S 
ATOM     11  O   UNL d   1     -55.842-101.982 -42.523  0.00  0.00    -0.200 OA
ATOM     12  O   UNL d   1     -54.972-100.765 -41.820  0.00  0.00    -0.200 OA
BRANCH  10  13
ATOM     13  N   UNL d   1     -55.345-101.812 -41.473  0.00  0.00    -0.225 N 
ATOM     14  C   UNL d   1     -54.769-101.632 -40.921  0.00  0.00     0.118 A 
ATOM     15  C   UNL d   1     -54.716-102.078 -40.228  0.00  0.00     0.142 A 
ATOM     16  O   UNL d   1     -55.236-102.693 -40.096  0.00  0.00    -0.300 OA
ATOM     17  C   UNL d   1     -55.815-102.872 -40.652  0.00  0.00     0.142 A 
ATOM     18  C   UNL d   1     -55.870-102.434 -41.339  0.00  0.00     0.118 A 
ENDBRANCH  10  13
ENDBRANCH   7  10
ENDBRANCH   2   4
BRANCH   1  19
ATOM     19  C   UNL d   1     -56.877 -99.050 -44.449  0.00  0.00     0.197 A 
ATOM     20  N   UNL d   1     -56.749 -99.046 -43.634  0.00  0.00    -0.218 NA
ATOM     21  C   UNL d   1     -57.479 -98.984 -43.264  0.00  0.00     0.114 A 
ATOM     22  C   UNL d   1     -57.700 -98.954 -42.473  0.00  0.00     0.112 A 
ATOM     23  C   UNL d   1     -58.058 -98.950 -43.851  0.00  0.00     0.074 A 
ATOM     24  C   UNL d   1     -58.495 -98.890 -42.261  0.00  0.00     0.028 A 
ATOM     25  C   UNL d   1     -59.073 -98.856 -42.858  0.00  0.00     0.027 A 
ATOM     26  C   UNL d   1     -58.856 -98.885 -43.647  0.00  0.00     0.102 A 
ATOM     27  S   UNL d   1     -57.674 -98.991 -44.585  0.00  0.00    -0.045 SA
BRANCH  22  28
ATOM     28  O   UNL d   1     -57.120 -98.989 -41.872  0.00  0.00    -0.327 OA
ATOM     29  C   UNL d   1     -57.310 -98.764 -41.101  0.00  0.00     0.181 C 
ENDBRANCH  22  28
BRANCH  26  30
ATOM     30  O   UNL d   1     -59.436 -98.851 -44.247  0.00  0.00    -0.328 OA
ATOM     31  C   UNL d   1     -59.744 -99.547 -44.560  0.00  0.00     0.181 C 
ENDBRANCH  26  30
ENDBRANCH   1  19
TORSDOF 6
ENDMDL
