MODEL 1
REMARK VINA RESULT:      -7.1      0.000      0.000
REMARK  3 active torsions:
REMARK  status: ('A' for Active; 'I' for Inactive)
REMARK    1  A    between atoms: N_4  and  C_2 
REMARK    2  A    between atoms: C_9  and  C_3 
REMARK       I    between atoms: C_7  and  N_4 
REMARK    3  A    between atoms: C_8  and  C_7 
ROOT
ATOM      1  N   UNL d   1     -42.167-122.512 -51.332  0.00  0.00    -0.051 NA
ATOM      2  C   UNL d   1     -41.754-122.031 -51.854  0.00  0.00     0.760 A 
ATOM      3  C   UNL d   1     -41.799-122.466 -50.595  0.00  0.00     0.147 A 
ATOM      4  N   UNL d   1     -41.129-121.685 -51.442  0.00  0.00    -0.019 NA
ATOM      5  S   UNL d   1     -41.153-121.951 -50.665  0.00  0.00     0.052 SA
ENDROOT
BRANCH   2   6
ATOM      6  N   UNL d   1     -41.867-121.861 -52.660  0.00  0.00    -0.018 NA
ATOM      7  C   UNL d   1     -41.789-122.460 -53.221  0.00  0.00     0.295 C 
ATOM      8  O   UNL d   1     -41.599-123.227 -52.983  0.00  0.00    -0.265 OA
BRANCH   7   9
ATOM      9  C   UNL d   1     -41.901-122.291 -54.019  0.00  0.00     0.059 A 
ATOM     10  C   UNL d   1     -42.518-121.797 -54.250  0.00  0.00     0.007 A 
ATOM     11  C   UNL d   1     -42.625-121.631 -55.053  0.00  0.00     0.030 A 
ATOM     12  C   UNL d   1     -42.121-121.956 -55.620  0.00  0.00     0.140 A 
ATOM     13  C   UNL d   1     -41.504-122.450 -55.389  0.00  0.00     0.030 A 
ATOM     14  F   UNL d   1     -42.241-121.781 -56.415  0.00  0.00    -0.204 F 
ATOM     15  C   UNL d   1     -41.392-122.619 -54.591  0.00  0.00     0.007 A 
ENDBRANCH   7   9
ENDBRANCH   2   6
BRANCH   3  16
ATOM     16  C   UNL d   1     -42.031-122.859 -49.913  0.00  0.00     0.026 A 
ATOM     17  C   UNL d   1     -42.763-122.698 -49.566  0.00  0.00     0.002 A 
ATOM     18  C   UNL d   1     -42.996-123.093 -48.881  0.00  0.00     0.000 A 
ATOM     19  C   UNL d   1     -42.493-123.652 -48.542  0.00  0.00     0.000 A 
ATOM     20  C   UNL d   1     -41.764-123.817 -48.880  0.00  0.00     0.000 A 
ATOM     21  C   UNL d   1     -41.531-123.422 -49.566  0.00  0.00     0.002 A 
ENDBRANCH   3  16
TORSDOF 3
ENDMDL
