MODEL 1
REMARK VINA RESULT:      -6.2      0.000      0.000
REMARK  5 active torsions:
REMARK  status: ('A' for Active; 'I' for Inactive)
REMARK       I    between atoms: C_2  and  N_1 
REMARK    1  A    between atoms: C_3  and  N_1 
REMARK    2  A    between atoms: C_4  and  C_2 
REMARK    3  A    between atoms: N_6  and  C_3 
REMARK    4  A    between atoms: C_11  and  N_6 
REMARK    5  A    between atoms: C_12  and  C_11 
ROOT
ATOM      1  N   UNL d   1     -48.341  13.202  23.419  0.00  0.00    -0.179 NA
ATOM      2  C   UNL d   1     -49.048  13.293  23.030  0.00  0.00     0.281 C 
ATOM      3  O   UNL d   1     -49.270  12.735  22.458  0.00  0.00    -0.265 OA
ENDROOT
BRANCH   1   4
ATOM      4  C   UNL d   1     -47.836  12.573  23.267  0.00  0.00     0.224 C 
ATOM      5  S   UNL d   1     -48.006  11.820  23.564  0.00  0.00    -0.037 SA
BRANCH   4   6
ATOM      6  N   UNL d   1     -47.167  12.699  22.822  0.00  0.00    -0.214 NA
BRANCH   6   7
ATOM      7  C   UNL d   1     -46.420  12.617  23.168  0.00  0.00     0.126 C 
BRANCH   7   8
ATOM      8  C   UNL d   1     -45.731  12.764  22.717  0.00  0.00     0.119 A 
ATOM      9  O   UNL d   1     -45.066  12.277  22.693  0.00  0.00    -0.304 OA
ATOM     10  C   UNL d   1     -44.513  12.620  22.185  0.00  0.00     0.123 A 
ATOM     11  C   UNL d   1     -44.848  13.320  21.901  0.00  0.00     0.029 A 
ATOM     12  C   UNL d   1     -45.593  13.402  22.230  0.00  0.00     0.028 A 
ENDBRANCH   7   8
ENDBRANCH   6   7
ENDBRANCH   4   6
ENDBRANCH   1   4
BRANCH   2  13
ATOM     13  C   UNL d   1     -49.542  13.942  23.204  0.00  0.00     0.058 A 
ATOM     14  C   UNL d   1     -49.267  14.690  23.039  0.00  0.00     0.005 A 
ATOM     15  C   UNL d   1     -49.746  15.344  23.206  0.00  0.00     0.000 A 
ATOM     16  C   UNL d   1     -50.492  15.247  23.536  0.00  0.00     0.000 A 
ATOM     17  C   UNL d   1     -50.757  14.474  23.698  0.00  0.00     0.000 A 
ATOM     18  C   UNL d   1     -50.962  15.920  23.697  0.00  0.00     0.000 C 
ATOM     19  C   UNL d   1     -50.281  13.834  23.531  0.00  0.00     0.005 A 
ENDBRANCH   2  13
TORSDOF 5
ENDMDL
MODEL 2
REMARK VINA RESULT:      -5.9      1.791      2.414
REMARK  5 active torsions:
REMARK  status: ('A' for Active; 'I' for Inactive)
REMARK       I    between atoms: C_2  and  N_1 
REMARK    1  A    between atoms: C_3  and  N_1 
REMARK    2  A    between atoms: C_4  and  C_2 
REMARK    3  A    between atoms: N_6  and  C_3 
REMARK    4  A    between atoms: C_11  and  N_6 
REMARK    5  A    between atoms: C_12  and  C_11 
ROOT
ATOM      1  N   UNL d   1     -47.063  12.753  22.638  0.00  0.00    -0.179 NA
ATOM      2  C   UNL d   1     -47.585  13.375  22.653  0.00  0.00     0.281 C 
ATOM      3  O   UNL d   1     -47.327  14.113  22.930  0.00  0.00    -0.265 OA
ENDROOT
BRANCH   1   4
ATOM      4  C   UNL d   1     -46.284  12.829  22.888  0.00  0.00     0.224 C 
ATOM      5  S   UNL d   1     -45.873  13.536  22.763  0.00  0.00    -0.037 SA
BRANCH   4   6
ATOM      6  N   UNL d   1     -45.923  12.203  23.261  0.00  0.00    -0.214 NA
BRANCH   6   7
ATOM      7  C   UNL d   1     -45.190  11.931  22.990  0.00  0.00     0.126 C 
BRANCH   7   8
ATOM      8  C   UNL d   1     -44.883  11.205  23.271  0.00  0.00     0.119 A 
ATOM      9  O   UNL d   1     -44.088  11.053  23.426  0.00  0.00    -0.304 OA
ATOM     10  C   UNL d   1     -44.020  10.275  23.692  0.00  0.00     0.123 A 
ATOM     11  C   UNL d   1     -44.782   9.955  23.698  0.00  0.00     0.029 A 
ATOM     12  C   UNL d   1     -45.304  10.529  23.439  0.00  0.00     0.028 A 
ENDBRANCH   7   8
ENDBRANCH   6   7
ENDBRANCH   4   6
ENDBRANCH   1   4
BRANCH   2  13
ATOM     13  C   UNL d   1     -48.370  13.269  22.394  0.00  0.00     0.058 A 
ATOM     14  C   UNL d   1     -48.969  13.335  22.942  0.00  0.00     0.005 A 
ATOM     15  C   UNL d   1     -49.753  13.233  22.699  0.00  0.00     0.000 A 
ATOM     16  C   UNL d   1     -49.934  13.067  21.915  0.00  0.00     0.000 A 
ATOM     17  C   UNL d   1     -49.309  13.004  21.369  0.00  0.00     0.000 A 
ATOM     18  C   UNL d   1     -50.733  12.968  21.689  0.00  0.00     0.000 C 
ATOM     19  C   UNL d   1     -48.538  13.105  21.613  0.00  0.00     0.005 A 
ENDBRANCH   2  13
TORSDOF 5
ENDMDL
MODEL 3
REMARK VINA RESULT:      -5.9      1.609      4.761
REMARK  5 active torsions:
REMARK  status: ('A' for Active; 'I' for Inactive)
REMARK       I    between atoms: C_2  and  N_1 
REMARK    1  A    between atoms: C_3  and  N_1 
REMARK    2  A    between atoms: C_4  and  C_2 
REMARK    3  A    between atoms: N_6  and  C_3 
REMARK    4  A    between atoms: C_11  and  N_6 
REMARK    5  A    between atoms: C_12  and  C_11 
ROOT
ATOM      1  N   UNL d   1     -47.438  13.549  22.883  0.00  0.00    -0.179 NA
ATOM      2  C   UNL d   1     -46.689  13.379  23.146  0.00  0.00     0.281 C 
ATOM      3  O   UNL d   1     -46.156  14.000  23.282  0.00  0.00    -0.265 OA
ENDROOT
BRANCH   1   4
ATOM      4  C   UNL d   1     -47.688  14.319  22.745  0.00  0.00     0.224 C 
ATOM      5  S   UNL d   1     -47.267  14.810  22.230  0.00  0.00    -0.037 SA
BRANCH   4   6
ATOM      6  N   UNL d   1     -48.356  14.594  23.121  0.00  0.00    -0.214 NA
BRANCH   6   7
ATOM      7  C   UNL d   1     -48.854  15.129  22.736  0.00  0.00     0.126 C 
BRANCH   7   8
ATOM      8  C   UNL d   1     -49.631  15.258  23.020  0.00  0.00     0.119 A 
ATOM      9  O   UNL d   1     -49.849  15.841  23.560  0.00  0.00    -0.304 OA
ATOM     10  C   UNL d   1     -50.661  15.780  23.692  0.00  0.00     0.123 A 
ATOM     11  C   UNL d   1     -50.935  15.153  23.229  0.00  0.00     0.029 A 
ATOM     12  C   UNL d   1     -50.300  14.839  22.820  0.00  0.00     0.028 A 
ENDBRANCH   7   8
ENDBRANCH   6   7
ENDBRANCH   4   6
ENDBRANCH   1   4
BRANCH   2  13
ATOM     13  C   UNL d   1     -46.461  12.588  23.278  0.00  0.00     0.058 A 
ATOM     14  C   UNL d   1     -47.021  12.068  23.559  0.00  0.00     0.005 A 
ATOM     15  C   UNL d   1     -46.810  11.279  23.695  0.00  0.00     0.000 A 
ATOM     16  C   UNL d   1     -46.045  11.016  23.549  0.00  0.00     0.000 A 
ATOM     17  C   UNL d   1     -45.486  11.562  23.262  0.00  0.00     0.000 A 
ATOM     18  C   UNL d   1     -45.851  10.216  23.693  0.00  0.00     0.000 C 
ATOM     19  C   UNL d   1     -45.699  12.338  23.130  0.00  0.00     0.005 A 
ENDBRANCH   2  13
TORSDOF 5
ENDMDL
MODEL 4
REMARK VINA RESULT:      -5.5      8.877     10.237
REMARK  5 active torsions:
REMARK  status: ('A' for Active; 'I' for Inactive)
REMARK       I    between atoms: C_2  and  N_1 
REMARK    1  A    between atoms: C_3  and  N_1 
REMARK    2  A    between atoms: C_4  and  C_2 
REMARK    3  A    between atoms: N_6  and  C_3 
REMARK    4  A    between atoms: C_11  and  N_6 
REMARK    5  A    between atoms: C_12  and  C_11 
ROOT
ATOM      1  N   UNL d   1     -39.675  14.536  18.924  0.00  0.00    -0.179 NA
ATOM      2  C   UNL d   1     -39.937  14.118  18.279  0.00  0.00     0.281 C 
ATOM      3  O   UNL d   1     -40.701  13.796  18.289  0.00  0.00    -0.265 OA
ENDROOT
BRANCH   1   4
ATOM      4  C   UNL d   1     -40.143  14.652  19.589  0.00  0.00     0.224 C 
ATOM      5  S   UNL d   1     -40.814  15.134  19.549  0.00  0.00    -0.037 SA
BRANCH   4   6
ATOM      6  N   UNL d   1     -39.938  14.289  20.288  0.00  0.00    -0.214 NA
BRANCH   6   7
ATOM      7  C   UNL d   1     -39.815  14.743  20.967  0.00  0.00     0.126 C 
BRANCH   7   8
ATOM      8  C   UNL d   1     -39.450  14.403  21.639  0.00  0.00     0.119 A 
ATOM      9  O   UNL d   1     -39.498  13.609  21.854  0.00  0.00    -0.304 OA
ATOM     10  C   UNL d   1     -39.062  13.502  22.547  0.00  0.00     0.123 A 
ATOM     11  C   UNL d   1     -38.749  14.239  22.751  0.00  0.00     0.029 A 
ATOM     12  C   UNL d   1     -38.990  14.785  22.191  0.00  0.00     0.028 A 
ENDBRANCH   7   8
ENDBRANCH   6   7
ENDBRANCH   4   6
ENDBRANCH   1   4
BRANCH   2  13
ATOM     13  C   UNL d   1     -39.442  14.015  17.616  0.00  0.00     0.058 A 
ATOM     14  C   UNL d   1     -38.974  13.349  17.586  0.00  0.00     0.005 A 
ATOM     15  C   UNL d   1     -38.477  13.232  16.935  0.00  0.00     0.000 A 
ATOM     16  C   UNL d   1     -38.449  13.778  16.322  0.00  0.00     0.000 A 
ATOM     17  C   UNL d   1     -38.935  14.454  16.370  0.00  0.00     0.000 A 
ATOM     18  C   UNL d   1     -37.941  13.643  15.672  0.00  0.00     0.000 C 
ATOM     19  C   UNL d   1     -39.423  14.563  17.014  0.00  0.00     0.005 A 
ENDBRANCH   2  13
TORSDOF 5
ENDMDL
MODEL 5
REMARK VINA RESULT:      -4.9      9.031     10.351
REMARK  5 active torsions:
REMARK  status: ('A' for Active; 'I' for Inactive)
REMARK       I    between atoms: C_2  and  N_1 
REMARK    1  A    between atoms: C_3  and  N_1 
REMARK    2  A    between atoms: C_4  and  C_2 
REMARK    3  A    between atoms: N_6  and  C_3 
REMARK    4  A    between atoms: C_11  and  N_6 
REMARK    5  A    between atoms: C_12  and  C_11 
ROOT
ATOM      1  N   UNL d   1     -39.625  14.433  19.140  0.00  0.00    -0.179 NA
ATOM      2  C   UNL d   1     -39.458  14.866  19.806  0.00  0.00     0.281 C 
ATOM      3  O   UNL d   1     -39.468  15.695  19.763  0.00  0.00    -0.265 OA
ENDROOT
BRANCH   1   4
ATOM      4  C   UNL d   1     -39.805  14.787  18.422  0.00  0.00     0.224 C 
ATOM      5  S   UNL d   1     -40.543  15.143  18.304  0.00  0.00    -0.037 SA
BRANCH   4   6
ATOM      6  N   UNL d   1     -39.250  14.785  17.826  0.00  0.00    -0.214 NA
BRANCH   6   7
ATOM      7  C   UNL d   1     -39.434  14.445  17.095  0.00  0.00     0.126 C 
BRANCH   7   8
ATOM      8  C   UNL d   1     -38.839  14.358  16.513  0.00  0.00     0.119 A 
ATOM      9  O   UNL d   1     -38.502  14.974  16.081  0.00  0.00    -0.304 OA
ATOM     10  C   UNL d   1     -37.940  14.653  15.568  0.00  0.00     0.123 A 
ATOM     11  C   UNL d   1     -37.940  13.836  15.692  0.00  0.00     0.029 A 
ATOM     12  C   UNL d   1     -38.491  13.662  16.271  0.00  0.00     0.028 A 
ENDBRANCH   7   8
ENDBRANCH   6   7
ENDBRANCH   4   6
ENDBRANCH   1   4
BRANCH   2  13
ATOM     13  C   UNL d   1     -39.278  14.481  20.523  0.00  0.00     0.058 A 
ATOM     14  C   UNL d   1     -39.857  14.441  21.094  0.00  0.00     0.005 A 
ATOM     15  C   UNL d   1     -39.694  14.062  21.811  0.00  0.00     0.000 A 
ATOM     16  C   UNL d   1     -38.958  13.726  21.953  0.00  0.00     0.000 A 
ATOM     17  C   UNL d   1     -38.377  13.776  21.357  0.00  0.00     0.000 A 
ATOM     18  C   UNL d   1     -38.812  13.347  22.683  0.00  0.00     0.000 C 
ATOM     19  C   UNL d   1     -38.544  14.151  20.653  0.00  0.00     0.005 A 
ENDBRANCH   2  13
TORSDOF 5
ENDMDL
