MODEL 1
REMARK VINA RESULT:      12.6      0.000      0.000
REMARK  1 active torsions:
REMARK  status: ('A' for Active; 'I' for Inactive)
REMARK    1  A    between atoms: C_6  and  C_1 
ROOT
ATOM      1  C   UNL d   1     -51.972  25.301  33.337  0.00  0.00     0.163 A 
ATOM      2  N   UNL d   1     -51.148  25.304  33.363  0.00  0.00    -0.225 NA
ATOM      3  N   UNL d   1     -52.255  26.085  33.311  0.00  0.00    -0.225 NA
ATOM      4  C   UNL d   1     -50.891  26.097  33.354  0.00  0.00     0.101 A 
ATOM      5  C   UNL d   1     -51.584  26.586  33.322  0.00  0.00     0.101 A 
ATOM      6  C   UNL d   1     -50.166  26.450  33.369  0.00  0.00     0.021 A 
ATOM      7  C   UNL d   1     -51.504  27.394  33.307  0.00  0.00     0.021 A 
ATOM      8  C   UNL d   1     -50.105  27.274  33.354  0.00  0.00     0.002 A 
ATOM      9  C   UNL d   1     -50.750  27.729  33.323  0.00  0.00     0.002 A 
ENDROOT
BRANCH   1  10
ATOM     10  C   UNL d   1     -52.428  24.612  33.338  0.00  0.00     0.039 A 
ATOM     11  C   UNL d   1     -52.094  23.858  33.338  0.00  0.00     0.024 A 
ATOM     12  C   UNL d   1     -52.567  23.188  33.339  0.00  0.00     0.099 A 
ATOM     13  N   UNL d   1     -53.382  23.208  33.338  0.00  0.00    -0.242 NA
ATOM     14  C   UNL d   1     -53.740  23.980  33.338  0.00  0.00     0.099 A 
ATOM     15  C   UNL d   1     -53.251  24.674  33.337  0.00  0.00     0.024 A 
ENDBRANCH   1  10
TORSDOF 1
ENDMDL
