MODEL 1
REMARK VINA RESULT:      44.8      0.000      0.000
REMARK  5 active torsions:
REMARK  status: ('A' for Active; 'I' for Inactive)
REMARK    1  A    between atoms: C_2  and  C_4 
REMARK    2  A    between atoms: C_4  and  C_10 
REMARK    3  A    between atoms: S_8  and  C_6 
REMARK    4  A    between atoms: C_14  and  C_7 
REMARK    5  A    between atoms: C_10  and  S_8 
ROOT
ATOM      1  N   UNL d   1      58.715  49.597  51.165  0.00  0.00    -0.148 NA
ATOM      2  N   UNL d   1      59.521  49.581  51.343  0.00  0.00    -0.141 NA
ATOM      3  C   UNL d   1      60.081  49.627  50.740  0.00  0.00     0.133 A 
ATOM      4  C   UNL d   1      58.472  49.659  50.378  0.00  0.00     0.103 A 
ATOM      5  C   UNL d   1      59.023  49.704  49.774  0.00  0.00     0.023 A 
ATOM      6  C   UNL d   1      59.825  49.689  49.947  0.00  0.00     0.029 A 
ENDROOT
BRANCH   3   7
ATOM      7  S   UNL d   1      60.877  49.611  50.920  0.00  0.00    -0.062 SA
BRANCH   7   8
ATOM      8  C   UNL d   1      61.235  48.906  51.149  0.00  0.00     0.079 C 
BRANCH   8   9
ATOM      9  C   UNL d   1      61.511  48.379  50.586  0.00  0.00     0.208 C 
ATOM     10  O   UNL d   1      61.832  48.667  49.883  0.00  0.00    -0.285 OA
BRANCH   9  11
ATOM     11  C   UNL d   1      61.472  47.570  50.712  0.00  0.00     0.069 A 
ATOM     12  S   UNL d   1      60.978  47.193  51.250  0.00  0.00    -0.083 SA
ATOM     13  C   UNL d   1      61.116  46.383  51.198  0.00  0.00     0.035 A 
ATOM     14  C   UNL d   1      61.699  46.270  50.623  0.00  0.00     0.008 A 
ATOM     15  C   UNL d   1      61.916  47.000  50.326  0.00  0.00     0.010 A 
ENDBRANCH   9  11
ENDBRANCH   8   9
ENDBRANCH   7   8
ENDBRANCH   3   7
BRANCH   4  16
ATOM     16  C   UNL d   1      57.666  49.674  50.201  0.00  0.00     0.019 A 
ATOM     17  C   UNL d   1      57.413  49.691  49.409  0.00  0.00     0.002 A 
ATOM     18  C   UNL d   1      56.604  49.707  49.231  0.00  0.00     0.000 A 
ATOM     19  C   UNL d   1      56.042  49.705  49.843  0.00  0.00     0.000 A 
ATOM     20  C   UNL d   1      56.290  49.689  50.621  0.00  0.00     0.000 A 
ATOM     21  C   UNL d   1      57.097  49.673  50.811  0.00  0.00     0.002 A 
ENDBRANCH   4  16
TORSDOF 5
ENDMDL
