MODEL 1
REMARK VINA RESULT:     142.9      0.000      0.000
REMARK  3 active torsions:
REMARK  status: ('A' for Active; 'I' for Inactive)
REMARK    1  A    between atoms: C_17  and  N_4 
REMARK    2  A    between atoms: C_11  and  C_5 
REMARK       I    between atoms: N_13  and  C_11 
REMARK    3  A    between atoms: C_21  and  N_13 
ROOT
ATOM      1  C   UNL d   1      60.670  47.691  50.393  0.00  0.00     0.155 A 
ATOM      2  C   UNL d   1      60.053  47.214  50.656  0.00  0.00     0.091 A 
ATOM      3  N   UNL d   1      61.381  47.339  50.157  0.00  0.00    -0.210 NA
ATOM      4  N   UNL d   1      60.578  48.494  50.368  0.00  0.00    -0.275 N 
ATOM      5  C   UNL d   1      59.258  48.371  50.863  0.00  0.00     0.094 A 
ATOM      6  C   UNL d   1      59.871  48.845  50.602  0.00  0.00     0.175 A 
ATOM      7  N   UNL d   1      60.855  46.043  50.447  0.00  0.00    -0.258 N 
ATOM      8  C   UNL d   1      61.481  46.526  50.181  0.00  0.00     0.152 A 
ATOM      9  C   UNL d   1      60.143  46.382  50.685  0.00  0.00     0.269 A 
ATOM     10  C   UNL d   1      59.341  47.555  50.893  0.00  0.00     0.016 A 
ATOM     11  C   UNL d   1      62.182  46.187  49.947  0.00  0.00     0.035 A 
ATOM     12  N   UNL d   1      59.779  49.665  50.575  0.00  0.00    -0.128 N 
ATOM     13  C   UNL d   1      60.944  45.229  50.475  0.00  0.00     0.084 A 
ATOM     14  O   UNL d   1      59.523  45.916  50.948  0.00  0.00    -0.266 OA
ATOM     15  C   UNL d   1      61.657  44.890  50.237  0.00  0.00     0.019 A 
ATOM     16  C   UNL d   1      62.283  45.373  49.971  0.00  0.00     0.005 A 
ATOM     17  C   UNL d   1      62.801  46.665  49.684  0.00  0.00     0.003 C 
ENDROOT
BRANCH   5  18
ATOM     18  C   UNL d   1      58.548  48.714  51.100  0.00  0.00     0.282 C 
ATOM     19  N   UNL d   1      57.877  48.668  50.616  0.00  0.00    -0.208 NA
ATOM     20  O   UNL d   1      58.502  49.112  51.834  0.00  0.00    -0.265 OA
BRANCH  19  21
ATOM     21  C   UNL d   1      57.169  49.015  50.862  0.00  0.00     0.085 A 
ATOM     22  C   UNL d   1      56.849  48.953  51.614  0.00  0.00     0.019 A 
ATOM     23  C   UNL d   1      56.140  49.386  51.610  0.00  0.00     0.002 A 
ATOM     24  C   UNL d   1      56.036  49.707  50.857  0.00  0.00     0.002 A 
ATOM     25  C   UNL d   1      56.667  49.480  50.396  0.00  0.00     0.019 A 
ENDBRANCH  19  21
ENDBRANCH   5  18
BRANCH   4  26
ATOM     26  C   UNL d   1      61.196  48.972  50.104  0.00  0.00     0.067 A 
ATOM     27  C   UNL d   1      61.814  49.257  50.572  0.00  0.00     0.018 A 
ATOM     28  C   UNL d   1      62.301  49.707  50.088  0.00  0.00     0.002 A 
ATOM     29  C   UNL d   1      61.993  49.706  49.313  0.00  0.00     0.002 A 
ATOM     30  C   UNL d   1      61.308  49.248  49.332  0.00  0.00     0.018 A 
ENDBRANCH   4  26
TORSDOF 3
ENDMDL
