MODEL 1
REMARK VINA RESULT:     114.8      0.000      0.000
REMARK  4 active torsions:
REMARK  status: ('A' for Active; 'I' for Inactive)
REMARK    1  A    between atoms: N_10  and  C_3 
REMARK    2  A    between atoms: C_12  and  C_5 
REMARK    3  A    between atoms: C_15  and  C_9 
REMARK    4  A    between atoms: C_19  and  N_11 
ROOT
ATOM      1  N   UNL d   1      59.277  49.250  52.341  0.00  0.00    -0.196 N 
ATOM      2  C   UNL d   1      58.575  49.348  52.771  0.00  0.00     0.167 A 
ATOM      3  C   UNL d   1      59.238  49.184  51.529  0.00  0.00     0.152 A 
ATOM      4  N   UNL d   1      60.023  49.287  53.548  0.00  0.00    -0.163 NA
ATOM      5  C   UNL d   1      58.603  49.414  53.574  0.00  0.00     0.055 A 
ATOM      6  N   UNL d   1      57.862  49.378  52.374  0.00  0.00    -0.227 NA
ATOM      7  C   UNL d   1      58.497  49.216  51.129  0.00  0.00     0.057 A 
ATOM      8  C   UNL d   1      59.322  49.385  53.979  0.00  0.00     0.104 A 
ATOM      9  C   UNL d   1      57.831  49.312  51.567  0.00  0.00     0.086 A 
ATOM     10  C   UNL d   1      59.348  49.451  54.778  0.00  0.00     0.023 C 
ENDROOT
BRANCH   3  11
ATOM     11  N   UNL d   1      59.955  49.083  51.084  0.00  0.00    -0.286 N 
ATOM     12  C   UNL d   1      60.336  49.707  50.650  0.00  0.00     0.101 A 
ATOM     13  C   UNL d   1      61.048  49.553  50.224  0.00  0.00     0.100 A 
ATOM     14  N   UNL d   1      61.390  48.774  50.225  0.00  0.00    -0.300 N 
ATOM     15  C   UNL d   1      61.006  48.147  50.662  0.00  0.00     0.100 A 
ATOM     16  C   UNL d   1      60.294  48.300  51.088  0.00  0.00     0.101 A 
BRANCH  14  17
ATOM     17  C   UNL d   1      62.105  48.620  49.797  0.00  0.00     0.080 C 
ATOM     18  C   UNL d   1      62.512  47.893  49.903  0.00  0.00     0.021 C 
ENDBRANCH  14  17
ENDBRANCH   3  11
BRANCH   9  19
ATOM     19  C   UNL d   1      57.077  49.343  51.155  0.00  0.00     0.018 C 
ATOM     20  C   UNL d   1      57.070  49.430  50.296  0.00  0.00     0.002 C 
ATOM     21  C   UNL d   1      56.342  49.289  51.592  0.00  0.00     0.002 C 
ENDBRANCH   9  19
BRANCH   5  22
ATOM     22  C   UNL d   1      57.895  49.514  54.009  0.00  0.00     0.004 A 
ATOM     23  C   UNL d   1      57.919  49.530  54.824  0.00  0.00     0.000 A 
ATOM     24  C   UNL d   1      57.220  49.628  55.253  0.00  0.00     0.000 A 
ATOM     25  C   UNL d   1      56.514  49.708  54.857  0.00  0.00     0.000 A 
ATOM     26  C   UNL d   1      56.496  49.690  54.033  0.00  0.00     0.000 A 
ATOM     27  C   UNL d   1      57.187  49.593  53.619  0.00  0.00     0.000 A 
ENDBRANCH   5  22
TORSDOF 4
ENDMDL
MODEL 2
REMARK VINA RESULT:     117.7      1.714      5.162
REMARK  4 active torsions:
REMARK  status: ('A' for Active; 'I' for Inactive)
REMARK    1  A    between atoms: N_10  and  C_3 
REMARK    2  A    between atoms: C_12  and  C_5 
REMARK    3  A    between atoms: C_15  and  C_9 
REMARK    4  A    between atoms: C_19  and  N_11 
ROOT
ATOM      1  N   UNL d   1      59.932  47.832  50.687  0.00  0.00    -0.196 N 
ATOM      2  C   UNL d   1      60.658  47.559  50.392  0.00  0.00     0.167 A 
ATOM      3  C   UNL d   1      59.755  48.625  50.631  0.00  0.00     0.152 A 
ATOM      4  N   UNL d   1      59.594  46.509  51.079  0.00  0.00    -0.163 NA
ATOM      5  C   UNL d   1      60.842  46.776  50.443  0.00  0.00     0.055 A 
ATOM      6  N   UNL d   1      61.178  48.090  50.054  0.00  0.00    -0.227 NA
ATOM      7  C   UNL d   1      60.299  49.165  50.280  0.00  0.00     0.057 A 
ATOM      8  C   UNL d   1      60.319  46.237  50.784  0.00  0.00     0.104 A 
ATOM      9  C   UNL d   1      60.995  48.877  50.002  0.00  0.00     0.086 A 
ATOM     10  C   UNL d   1      60.505  45.457  50.834  0.00  0.00     0.023 C 
ENDROOT
BRANCH   3  11
ATOM     11  N   UNL d   1      59.012  48.909  50.932  0.00  0.00    -0.286 N 
ATOM     12  C   UNL d   1      58.918  49.280  51.691  0.00  0.00     0.101 A 
ATOM     13  C   UNL d   1      58.157  49.544  51.941  0.00  0.00     0.100 A 
ATOM     14  N   UNL d   1      57.479  49.441  51.438  0.00  0.00    -0.300 N 
ATOM     15  C   UNL d   1      57.574  49.067  50.675  0.00  0.00     0.100 A 
ATOM     16  C   UNL d   1      58.335  48.803  50.423  0.00  0.00     0.101 A 
BRANCH  14  17
ATOM     17  C   UNL d   1      56.714  49.706  51.691  0.00  0.00     0.080 C 
ATOM     18  C   UNL d   1      56.185  49.173  52.065  0.00  0.00     0.021 C 
ENDBRANCH  14  17
ENDBRANCH   3  11
BRANCH   9  19
ATOM     19  C   UNL d   1      61.547  49.431  49.644  0.00  0.00     0.018 C 
ATOM     20  C   UNL d   1      61.405  49.707  48.839  0.00  0.00     0.002 C 
ATOM     21  C   UNL d   1      62.229  49.707  50.083  0.00  0.00     0.002 C 
ENDBRANCH   9  19
BRANCH   5  22
ATOM     22  C   UNL d   1      61.575  46.500  50.146  0.00  0.00     0.004 A 
ATOM     23  C   UNL d   1      61.619  46.204  49.387  0.00  0.00     0.000 A 
ATOM     24  C   UNL d   1      62.341  45.932  49.094  0.00  0.00     0.000 A 
ATOM     25  C   UNL d   1      63.003  45.963  49.567  0.00  0.00     0.000 A 
ATOM     26  C   UNL d   1      62.953  46.263  50.332  0.00  0.00     0.000 A 
ATOM     27  C   UNL d   1      62.238  46.528  50.613  0.00  0.00     0.000 A 
ENDBRANCH   5  22
TORSDOF 4
ENDMDL
