MODEL 1
REMARK VINA RESULT:       0.9      0.000      0.000
REMARK  7 active torsions:
REMARK  status: ('A' for Active; 'I' for Inactive)
REMARK    1  A    between atoms: C_3  and  C_1 
REMARK    2  A    between atoms: C_6  and  C_2 
REMARK       I    between atoms: N_5  and  C_3 
REMARK    3  A    between atoms: C_9  and  N_5 
REMARK    4  A    between atoms: N_10  and  C_9 
REMARK    5  A    between atoms: C_15  and  N_10 
REMARK    6  A    between atoms: C_13  and  C_15 
REMARK    7  A    between atoms: C_17  and  C_13 
ROOT
ATOM      1  C   UNL d   1      58.733  -0.101  30.522  0.00  0.00     0.285 C 
ATOM      2  N   UNL d   1      58.446  -0.096  31.295  0.00  0.00    -0.179 NA
ATOM      3  O   UNL d   1      58.242   0.110  29.894  0.00  0.00    -0.265 OA
ENDROOT
BRANCH   1   4
ATOM      4  C   UNL d   1      59.526  -0.320  30.383  0.00  0.00     0.103 A 
ATOM      5  C   UNL d   1      59.780  -0.929  29.897  0.00  0.00     0.116 A 
ATOM      6  N   UNL d   1      60.600  -0.950  29.920  0.00  0.00    -0.126 NA
ATOM      7  O   UNL d   1      60.852  -0.348  30.425  0.00  0.00    -0.211 OA
ATOM      8  C   UNL d   1      60.188   0.039  30.709  0.00  0.00     0.131 A 
ATOM      9  C   UNL d   1      60.197   0.679  31.232  0.00  0.00     0.029 C 
BRANCH   5  10
ATOM     10  C   UNL d   1      59.326  -1.450  29.449  0.00  0.00     0.031 A 
ATOM     11  C   UNL d   1      59.416  -2.263  29.539  0.00  0.00     0.059 A 
ATOM     12 CL   UNL d   1      59.968  -2.567  30.087  0.00  0.00    -0.082 Cl
ATOM     13  C   UNL d   1      58.967  -2.779  29.096  0.00  0.00     0.011 A 
ATOM     14  C   UNL d   1      58.421  -2.483  28.554  0.00  0.00     0.001 A 
ATOM     15  C   UNL d   1      58.327  -1.678  28.460  0.00  0.00     0.000 A 
ATOM     16  C   UNL d   1      58.778  -1.154  28.906  0.00  0.00     0.002 A 
ENDBRANCH   5  10
ENDBRANCH   1   4
BRANCH   2  17
ATOM     17  C   UNL d   1      57.665   0.119  31.440  0.00  0.00     0.224 C 
ATOM     18  S   UNL d   1      57.072  -0.108  30.913  0.00  0.00    -0.037 SA
BRANCH  17  19
ATOM     19  N   UNL d   1      57.479   0.559  32.111  0.00  0.00    -0.212 NA
BRANCH  19  20
ATOM     20  C   UNL d   1      56.773   0.412  32.513  0.00  0.00     0.143 C 
BRANCH  20  21
ATOM     21  C   UNL d   1      56.766   0.352  33.339  0.00  0.00     0.215 C 
ATOM     22  O   UNL d   1      57.469   0.359  33.762  0.00  0.00    -0.285 OA
BRANCH  21  23
ATOM     23  C   UNL d   1      56.046   0.285  33.737  0.00  0.00     0.041 A 
ATOM     24  C   UNL d   1      55.924   0.679  34.446  0.00  0.00     0.003 A 
ATOM     25  C   UNL d   1      55.204   0.612  34.845  0.00  0.00     0.000 A 
ATOM     26  C   UNL d   1      54.602   0.143  34.525  0.00  0.00     0.000 A 
ATOM     27  C   UNL d   1      54.725  -0.252  33.817  0.00  0.00     0.000 A 
ATOM     28  C   UNL d   1      55.445  -0.185  33.418  0.00  0.00     0.003 A 
ENDBRANCH  21  23
ENDBRANCH  20  21
ENDBRANCH  19  20
ENDBRANCH  17  19
ENDBRANCH   2  17
TORSDOF 7
ENDMDL
MODEL 2
REMARK VINA RESULT:       2.8      8.627     10.012
REMARK  7 active torsions:
REMARK  status: ('A' for Active; 'I' for Inactive)
REMARK    1  A    between atoms: C_3  and  C_1 
REMARK    2  A    between atoms: C_6  and  C_2 
REMARK       I    between atoms: N_5  and  C_3 
REMARK    3  A    between atoms: C_9  and  N_5 
REMARK    4  A    between atoms: N_10  and  C_9 
REMARK    5  A    between atoms: C_15  and  N_10 
REMARK    6  A    between atoms: C_13  and  C_15 
REMARK    7  A    between atoms: C_17  and  C_13 
ROOT
ATOM      1  C   UNL d   1      59.303  -9.083  33.735  0.00  0.00     0.285 C 
ATOM      2  N   UNL d   1      59.086  -9.770  33.334  0.00  0.00    -0.179 NA
ATOM      3  O   UNL d   1      58.895  -8.378  33.605  0.00  0.00    -0.265 OA
ENDROOT
BRANCH   1   4
ATOM      4  C   UNL d   1      59.940  -9.108  34.273  0.00  0.00     0.103 A 
ATOM      5  C   UNL d   1      59.939  -8.810  35.036  0.00  0.00     0.116 A 
ATOM      6  N   UNL d   1      60.676  -8.953  35.368  0.00  0.00    -0.126 NA
ATOM      7  O   UNL d   1      61.133  -9.343  34.803  0.00  0.00    -0.211 OA
ATOM      8  C   UNL d   1      60.678  -9.438  34.130  0.00  0.00     0.131 A 
ATOM      9  C   UNL d   1      60.929  -9.804  33.432  0.00  0.00     0.029 C 
BRANCH   5  10
ATOM     10  C   UNL d   1      59.329  -8.427  35.436  0.00  0.00     0.031 A 
ATOM     11  C   UNL d   1      59.270  -7.606  35.417  0.00  0.00     0.059 A 
ATOM     12 CL   UNL d   1      59.830  -7.154  34.992  0.00  0.00    -0.082 Cl
ATOM     13  C   UNL d   1      58.668  -7.227  35.813  0.00  0.00     0.011 A 
ATOM     14  C   UNL d   1      58.114  -7.669  36.233  0.00  0.00     0.001 A 
ATOM     15  C   UNL d   1      58.166  -8.483  36.255  0.00  0.00     0.000 A 
ATOM     16  C   UNL d   1      58.774  -8.870  35.857  0.00  0.00     0.002 A 
ENDBRANCH   5  10
ENDBRANCH   1   4
BRANCH   2  17
ATOM     17  C   UNL d   1      58.459  -9.752  32.801  0.00  0.00     0.224 C 
ATOM     18  S   UNL d   1      57.682  -9.738  33.082  0.00  0.00    -0.037 SA
BRANCH  17  19
ATOM     19  N   UNL d   1      58.609  -9.748  31.991  0.00  0.00    -0.212 NA
BRANCH  19  20
ATOM     20  C   UNL d   1      57.979  -9.799  31.459  0.00  0.00     0.143 C 
BRANCH  20  21
ATOM     21  C   UNL d   1      58.119  -9.792  30.643  0.00  0.00     0.215 C 
ATOM     22  O   UNL d   1      58.886  -9.812  30.353  0.00  0.00    -0.285 OA
BRANCH  21  23
ATOM     23  C   UNL d   1      57.481  -9.765  30.120  0.00  0.00     0.041 A 
ATOM     24  C   UNL d   1      57.607  -9.752  29.310  0.00  0.00     0.003 A 
ATOM     25  C   UNL d   1      56.970  -9.725  28.786  0.00  0.00     0.000 A 
ATOM     26  C   UNL d   1      56.198  -9.712  29.083  0.00  0.00     0.000 A 
ATOM     27  C   UNL d   1      56.072  -9.725  29.893  0.00  0.00     0.000 A 
ATOM     28  C   UNL d   1      56.709  -9.752  30.417  0.00  0.00     0.003 A 
ENDBRANCH  21  23
ENDBRANCH  20  21
ENDBRANCH  19  20
ENDBRANCH  17  19
ENDBRANCH   2  17
TORSDOF 7
ENDMDL
