MODEL 1
REMARK VINA RESULT:      -0.7      0.000      0.000
REMARK  3 active torsions:
REMARK  status: ('A' for Active; 'I' for Inactive)
REMARK    1  A    between atoms: N_3  and  C_1 
REMARK    2  A    between atoms: C_8  and  N_2 
REMARK       I    between atoms: C_4  and  N_3 
REMARK    3  A    between atoms: C_7  and  C_4 
ROOT
ATOM      1  C   UNL d   1     -41.377-121.669 -52.039  0.00  0.00     0.185 A 
ATOM      2  N   UNL d   1     -41.484-121.749 -51.212  0.00  0.00    -0.254 N 
ATOM      3  S   UNL d   1     -41.155-120.895 -52.186  0.00  0.00    -0.044 SA
ATOM      4  C   UNL d   1     -41.326-121.027 -50.874  0.00  0.00     0.273 A 
ATOM      5  C   UNL d   1     -41.123-120.498 -51.471  0.00  0.00     0.099 A 
ATOM      6  O   UNL d   1     -41.365-120.858 -50.066  0.00  0.00    -0.266 OA
ENDROOT
BRANCH   1   7
ATOM      7  N   UNL d   1     -41.478-122.266 -52.606  0.00  0.00    -0.182 NA
ATOM      8  C   UNL d   1     -41.585-122.072 -53.394  0.00  0.00     0.304 C 
ATOM      9  O   UNL d   1     -41.593-121.276 -53.629  0.00  0.00    -0.263 OA
BRANCH   8  10
ATOM     10  C   UNL d   1     -41.686-122.666 -53.965  0.00  0.00     0.158 A 
ATOM     11  O   UNL d   1     -41.339-123.408 -53.942  0.00  0.00    -0.300 OA
ATOM     12  C   UNL d   1     -41.589-123.817 -54.615  0.00  0.00     0.123 A 
ATOM     13  C   UNL d   1     -42.086-123.325 -55.043  0.00  0.00     0.029 A 
ATOM     14  C   UNL d   1     -42.153-122.614 -54.653  0.00  0.00     0.032 A 
ENDBRANCH   8  10
ENDBRANCH   1   7
BRANCH   2  15
ATOM     15  C   UNL d   1     -41.710-122.443 -50.821  0.00  0.00     0.069 A 
ATOM     16  C   UNL d   1     -42.462-122.481 -50.485  0.00  0.00     0.018 A 
ATOM     17  C   UNL d   1     -42.696-123.175 -50.091  0.00  0.00     0.002 A 
ATOM     18  C   UNL d   1     -42.173-123.817 -50.039  0.00  0.00     0.000 A 
ATOM     19  C   UNL d   1     -41.422-123.770 -50.378  0.00  0.00     0.002 A 
ATOM     20  C   UNL d   1     -41.192-123.084 -50.767  0.00  0.00     0.018 A 
ENDBRANCH   2  15
TORSDOF 3
ENDMDL
MODEL 2
REMARK VINA RESULT:       1.2      1.104      3.474
REMARK  3 active torsions:
REMARK  status: ('A' for Active; 'I' for Inactive)
REMARK    1  A    between atoms: N_3  and  C_1 
REMARK    2  A    between atoms: C_8  and  N_2 
REMARK       I    between atoms: C_4  and  N_3 
REMARK    3  A    between atoms: C_7  and  C_4 
ROOT
ATOM      1  C   UNL d   1     -41.746-121.710 -51.515  0.00  0.00     0.185 A 
ATOM      2  N   UNL d   1     -41.578-121.750 -52.336  0.00  0.00    -0.254 N 
ATOM      3  S   UNL d   1     -41.608-120.941 -51.271  0.00  0.00    -0.044 SA
ATOM      4  C   UNL d   1     -41.342-121.009 -52.573  0.00  0.00     0.273 A 
ATOM      5  C   UNL d   1     -41.359-120.508 -51.920  0.00  0.00     0.099 A 
ATOM      6  O   UNL d   1     -41.123-120.800 -53.342  0.00  0.00    -0.266 OA
ENDROOT
BRANCH   1   7
ATOM      7  N   UNL d   1     -42.006-122.335 -51.037  0.00  0.00    -0.182 NA
ATOM      8  C   UNL d   1     -42.155-122.213 -50.242  0.00  0.00     0.304 C 
ATOM      9  O   UNL d   1     -42.046-121.460 -49.910  0.00  0.00    -0.263 OA
BRANCH   8  10
ATOM     10  C   UNL d   1     -42.415-122.836 -49.760  0.00  0.00     0.158 A 
ATOM     11  O   UNL d   1     -43.147-123.202 -49.814  0.00  0.00    -0.300 OA
ATOM     12  C   UNL d   1     -43.170-123.789 -49.232  0.00  0.00     0.123 A 
ATOM     13  C   UNL d   1     -42.456-123.779 -48.829  0.00  0.00     0.029 A 
ATOM     14  C   UNL d   1     -41.984-123.197 -49.145  0.00  0.00     0.032 A 
ENDBRANCH   8  10
ENDBRANCH   1   7
BRANCH   2  15
ATOM     15  C   UNL d   1     -41.644-122.426 -52.808  0.00  0.00     0.069 A 
ATOM     16  C   UNL d   1     -41.207-123.094 -52.606  0.00  0.00     0.018 A 
ATOM     17  C   UNL d   1     -41.268-123.777 -53.076  0.00  0.00     0.002 A 
ATOM     18  C   UNL d   1     -41.766-123.779 -53.739  0.00  0.00     0.000 A 
ATOM     19  C   UNL d   1     -42.201-123.105 -53.934  0.00  0.00     0.002 A 
ATOM     20  C   UNL d   1     -42.139-122.431 -53.469  0.00  0.00     0.018 A 
ENDBRANCH   2  15
TORSDOF 3
ENDMDL
MODEL 3
REMARK VINA RESULT:       1.8      1.263      2.282
REMARK  3 active torsions:
REMARK  status: ('A' for Active; 'I' for Inactive)
REMARK    1  A    between atoms: N_3  and  C_1 
REMARK    2  A    between atoms: C_8  and  N_2 
REMARK       I    between atoms: C_4  and  N_3 
REMARK    3  A    between atoms: C_7  and  C_4 
ROOT
ATOM      1  C   UNL d   1     -41.581-122.842 -52.535  0.00  0.00     0.185 A 
ATOM      2  N   UNL d   1     -41.394-122.498 -51.794  0.00  0.00    -0.254 N 
ATOM      3  S   UNL d   1     -41.616-123.653 -52.430  0.00  0.00    -0.044 SA
ATOM      4  C   UNL d   1     -41.320-123.104 -51.256  0.00  0.00     0.273 A 
ATOM      5  C   UNL d   1     -41.457-123.816 -51.644  0.00  0.00     0.099 A 
ATOM      6  O   UNL d   1     -41.139-123.012 -50.455  0.00  0.00    -0.266 OA
ENDROOT
BRANCH   1   7
ATOM      7  N   UNL d   1     -41.706-122.435 -53.246  0.00  0.00    -0.182 NA
ATOM      8  C   UNL d   1     -41.819-122.848 -53.944  0.00  0.00     0.304 C 
ATOM      9  O   UNL d   1     -41.809-123.678 -53.942  0.00  0.00    -0.263 OA
BRANCH   8  10
ATOM     10  C   UNL d   1     -41.945-122.444 -54.657  0.00  0.00     0.158 A 
ATOM     11  O   UNL d   1     -42.608-121.996 -54.837  0.00  0.00    -0.300 OA
ATOM     12  C   UNL d   1     -42.502-121.696 -55.600  0.00  0.00     0.123 A 
ATOM     13  C   UNL d   1     -41.779-121.962 -55.881  0.00  0.00     0.029 A 
ATOM     14  C   UNL d   1     -41.428-122.422 -55.310  0.00  0.00     0.032 A 
ENDBRANCH   8  10
ENDBRANCH   1   7
BRANCH   2  15
ATOM     15  C   UNL d   1     -41.304-121.689 -51.648  0.00  0.00     0.069 A 
ATOM     16  C   UNL d   1     -41.274-121.428 -50.867  0.00  0.00     0.018 A 
ATOM     17  C   UNL d   1     -41.183-120.616 -50.713  0.00  0.00     0.002 A 
ATOM     18  C   UNL d   1     -41.124-120.080 -51.343  0.00  0.00     0.000 A 
ATOM     19  C   UNL d   1     -41.154-120.350 -52.122  0.00  0.00     0.002 A 
ATOM     20  C   UNL d   1     -41.244-121.153 -52.273  0.00  0.00     0.018 A 
ENDBRANCH   2  15
TORSDOF 3
ENDMDL
MODEL 4
REMARK VINA RESULT:       1.9      1.001      3.440
REMARK  3 active torsions:
REMARK  status: ('A' for Active; 'I' for Inactive)
REMARK    1  A    between atoms: N_3  and  C_1 
REMARK    2  A    between atoms: C_8  and  N_2 
REMARK       I    between atoms: C_4  and  N_3 
REMARK    3  A    between atoms: C_7  and  C_4 
ROOT
ATOM      1  C   UNL d   1     -41.646-121.688 -52.704  0.00  0.00     0.185 A 
ATOM      2  N   UNL d   1     -41.667-121.741 -53.541  0.00  0.00    -0.254 N 
ATOM      3  S   UNL d   1     -41.535-120.902 -52.508  0.00  0.00    -0.044 SA
ATOM      4  C   UNL d   1     -41.568-120.989 -53.835  0.00  0.00     0.273 A 
ATOM      5  C   UNL d   1     -41.487-120.470 -53.202  0.00  0.00     0.099 A 
ATOM      6  O   UNL d   1     -41.553-120.787 -54.636  0.00  0.00    -0.266 OA
ENDROOT
BRANCH   1   7
ATOM      7  N   UNL d   1     -41.725-122.319 -52.172  0.00  0.00    -0.182 NA
ATOM      8  C   UNL d   1     -41.670-122.188 -51.366  0.00  0.00     0.304 C 
ATOM      9  O   UNL d   1     -41.536-121.421 -51.078  0.00  0.00    -0.263 OA
BRANCH   8  10
ATOM     10  C   UNL d   1     -41.748-122.817 -50.830  0.00  0.00     0.158 A 
ATOM     11  O   UNL d   1     -42.458-123.109 -50.543  0.00  0.00    -0.300 OA
ATOM     12  C   UNL d   1     -42.278-123.730 -50.029  0.00  0.00     0.123 A 
ATOM     13  C   UNL d   1     -41.462-123.813 -50.004  0.00  0.00     0.029 A 
ATOM     14  C   UNL d   1     -41.126-123.257 -50.492  0.00  0.00     0.032 A 
ENDBRANCH   8  10
ENDBRANCH   1   7
BRANCH   2  15
ATOM     15  C   UNL d   1     -41.769-122.436 -53.977  0.00  0.00     0.069 A 
ATOM     16  C   UNL d   1     -42.496-122.572 -54.342  0.00  0.00     0.018 A 
ATOM     17  C   UNL d   1     -42.606-123.268 -54.782  0.00  0.00     0.002 A 
ATOM     18  C   UNL d   1     -41.987-123.817 -54.849  0.00  0.00     0.000 A 
ATOM     19  C   UNL d   1     -41.263-123.674 -54.480  0.00  0.00     0.002 A 
ATOM     20  C   UNL d   1     -41.155-122.985 -54.046  0.00  0.00     0.018 A 
ENDBRANCH   2  15
TORSDOF 3
ENDMDL
