MODEL 1
REMARK VINA RESULT:      49.4      0.000      0.000
REMARK  4 active torsions:
REMARK  status: ('A' for Active; 'I' for Inactive)
REMARK    1  A    between atoms: C_7  and  C_1 
REMARK    2  A    between atoms: C_8  and  C_7 
REMARK       I    between atoms: N_9  and  C_8 
REMARK    3  A    between atoms: C_14  and  N_9 
REMARK    4  A    between atoms: C_15  and  C_14 
ROOT
ATOM      1  C   UNL d   1     -50.874  26.469  33.320  0.00  0.00     0.032 A 
ATOM      2  C   UNL d   1     -51.332  25.780  33.315  0.00  0.00     0.025 A 
ATOM      3  C   UNL d   1     -51.316  27.166  33.321  0.00  0.00     0.123 A 
ATOM      4  O   UNL d   1     -52.170  26.827  33.316  0.00  0.00    -0.305 OA
ATOM      5  C   UNL d   1     -51.130  24.978  33.313  0.00  0.00     0.002 A 
ATOM      6  C   UNL d   1     -52.130  26.001  33.313  0.00  0.00     0.100 A 
ATOM      7  C   UNL d   1     -51.713  24.400  33.309  0.00  0.00     0.000 A 
ATOM      8  C   UNL d   1     -52.719  25.416  33.308  0.00  0.00     0.025 A 
ATOM      9  C   UNL d   1     -52.511  24.620  33.306  0.00  0.00     0.002 A 
ATOM     10  C   UNL d   1     -50.336  24.759  33.316  0.00  0.00     0.000 A 
ATOM     11  C   UNL d   1     -51.507  23.614  33.307  0.00  0.00     0.000 A 
ATOM     12  C   UNL d   1     -50.128  23.963  33.314  0.00  0.00     0.000 A 
ATOM     13  C   UNL d   1     -50.726  23.390  33.309  0.00  0.00     0.000 A 
ENDROOT
BRANCH   1  14
ATOM     14  C   UNL d   1     -50.048  26.505  33.324  0.00  0.00     0.065 C 
BRANCH  14  15
ATOM     15  C   UNL d   1     -49.644  26.678  34.023  0.00  0.00     0.279 C 
ATOM     16  N   UNL d   1     -49.286  27.416  34.120  0.00  0.00    -0.206 NA
ATOM     17  O   UNL d   1     -49.596  26.122  34.622  0.00  0.00    -0.265 OA
BRANCH  16  18
ATOM     18  C   UNL d   1     -48.886  27.592  34.809  0.00  0.00     0.102 C 
BRANCH  18  19
ATOM     19  C   UNL d   1     -48.552  28.342  34.921  0.00  0.00     0.019 A 
ATOM     20  C   UNL d   1     -47.901  28.421  35.413  0.00  0.00     0.002 A 
ATOM     21  C   UNL d   1     -47.565  29.163  35.528  0.00  0.00     0.000 A 
ATOM     22  C   UNL d   1     -47.880  29.825  35.153  0.00  0.00     0.000 A 
ATOM     23  C   UNL d   1     -48.543  29.735  34.654  0.00  0.00     0.000 A 
ATOM     24  C   UNL d   1     -48.872  28.993  34.544  0.00  0.00     0.002 A 
ENDBRANCH  18  19
ENDBRANCH  16  18
ENDBRANCH  14  15
ENDBRANCH   1  14
TORSDOF 4
ENDMDL
