MODEL 1
REMARK VINA RESULT:      -6.6      0.000      0.000
REMARK  1 active torsions:
REMARK  status: ('A' for Active; 'I' for Inactive)
REMARK    1  A    between atoms: C_8  and  CA_5 
ROOT
ATOM      1  N   UNL d   1     -47.783  12.963  23.190  0.00  0.00    -0.224 NA
ATOM      2  C   UNL d   1     -48.113  13.677  22.966  0.00  0.00     0.162 A 
ATOM      3  N   UNL d   1     -48.927  13.763  22.945  0.00  0.00    -0.225 NA
ATOM      4  C   UNL d   1     -47.622  14.308  22.762  0.00  0.00     0.036 A 
ATOM      5  CA  UNL d   1     -46.968  12.865  23.214  0.00  0.00     0.125 A 
ATOM      6  C   UNL d   1     -46.804  14.221  22.784  0.00  0.00     0.005 A 
ATOM      7  C   UNL d   1     -46.476  13.496  23.011  0.00  0.00     0.023 A 
ATOM      8  C   UNL d   1     -49.255  14.486  22.718  0.00  0.00     0.101 A 
ATOM      9  C   UNL d   1     -47.942  15.027  22.537  0.00  0.00     0.005 A 
ATOM     10  C   UNL d   1     -48.764  15.117  22.514  0.00  0.00     0.021 A 
ENDROOT
BRANCH   5  11
ATOM     11  C   UNL d   1     -46.642  12.154  23.437  0.00  0.00     0.253 C 
ATOM     12  O   UNL d   1     -45.859  12.124  23.696  0.00  0.00    -0.281 OA
ENDBRANCH   5  11
TORSDOF 1
ENDMDL
MODEL 2
REMARK VINA RESULT:      -6.6      1.311      1.907
REMARK  1 active torsions:
REMARK  status: ('A' for Active; 'I' for Inactive)
REMARK    1  A    between atoms: C_8  and  CA_5 
ROOT
ATOM      1  N   UNL d   1     -46.029  12.372  23.409  0.00  0.00    -0.224 NA
ATOM      2  C   UNL d   1     -46.479  13.027  23.213  0.00  0.00     0.162 A 
ATOM      3  N   UNL d   1     -46.122  13.758  23.131  0.00  0.00    -0.225 NA
ATOM      4  C   UNL d   1     -47.292  12.944  23.100  0.00  0.00     0.036 A 
ATOM      5  CA  UNL d   1     -46.377  11.632  23.494  0.00  0.00     0.125 A 
ATOM      6  C   UNL d   1     -47.650  12.208  23.183  0.00  0.00     0.005 A 
ATOM      7  C   UNL d   1     -47.190  11.550  23.380  0.00  0.00     0.023 A 
ATOM      8  C   UNL d   1     -46.581  14.416  22.934  0.00  0.00     0.101 A 
ATOM      9  C   UNL d   1     -47.752  13.593  22.904  0.00  0.00     0.005 A 
ATOM     10  C   UNL d   1     -47.394  14.334  22.820  0.00  0.00     0.021 A 
ENDROOT
BRANCH   5  11
ATOM     11  C   UNL d   1     -45.928  10.982  23.689  0.00  0.00     0.253 C 
ATOM     12  O   UNL d   1     -45.105  11.040  23.698  0.00  0.00    -0.281 OA
ENDBRANCH   5  11
TORSDOF 1
ENDMDL
MODEL 3
REMARK VINA RESULT:      -6.5      1.661      2.456
REMARK  1 active torsions:
REMARK  status: ('A' for Active; 'I' for Inactive)
REMARK    1  A    between atoms: C_8  and  CA_5 
ROOT
ATOM      1  N   UNL d   1     -48.693  12.846  23.325  0.00  0.00    -0.224 NA
ATOM      2  C   UNL d   1     -47.919  13.081  23.200  0.00  0.00     0.162 A 
ATOM      3  N   UNL d   1     -47.759  13.845  22.953  0.00  0.00    -0.225 NA
ATOM      4  C   UNL d   1     -47.304  12.546  23.325  0.00  0.00     0.036 A 
ATOM      5  CA  UNL d   1     -48.865  12.082  23.573  0.00  0.00     0.125 A 
ATOM      6  C   UNL d   1     -47.466  11.778  23.574  0.00  0.00     0.005 A 
ATOM      7  C   UNL d   1     -48.250  11.546  23.698  0.00  0.00     0.023 A 
ATOM      8  C   UNL d   1     -46.976  14.077  22.828  0.00  0.00     0.101 A 
ATOM      9  C   UNL d   1     -46.526  12.771  23.203  0.00  0.00     0.005 A 
ATOM     10  C   UNL d   1     -46.361  13.542  22.953  0.00  0.00     0.021 A 
ENDROOT
BRANCH   5  11
ATOM     11  C   UNL d   1     -49.635  11.850  23.697  0.00  0.00     0.253 C 
ATOM     12  O   UNL d   1     -49.829  11.048  23.687  0.00  0.00    -0.281 OA
ENDBRANCH   5  11
TORSDOF 1
ENDMDL
MODEL 4
REMARK VINA RESULT:      -6.5      1.558      2.227
REMARK  1 active torsions:
REMARK  status: ('A' for Active; 'I' for Inactive)
REMARK    1  A    between atoms: C_8  and  CA_5 
ROOT
ATOM      1  N   UNL d   1     -47.904  13.016  23.123  0.00  0.00    -0.224 NA
ATOM      2  C   UNL d   1     -48.603  12.619  23.277  0.00  0.00     0.162 A 
ATOM      3  N   UNL d   1     -49.320  12.999  23.169  0.00  0.00    -0.225 NA
ATOM      4  C   UNL d   1     -48.580  11.838  23.541  0.00  0.00     0.036 A 
ATOM      5  CA  UNL d   1     -47.178  12.645  23.228  0.00  0.00     0.125 A 
ATOM      6  C   UNL d   1     -47.858  11.458  23.649  0.00  0.00     0.005 A 
ATOM      7  C   UNL d   1     -47.155  11.864  23.492  0.00  0.00     0.023 A 
ATOM      8  C   UNL d   1     -50.023  12.594  23.326  0.00  0.00     0.101 A 
ATOM      9  C   UNL d   1     -49.274  11.432  23.698  0.00  0.00     0.005 A 
ATOM     10  C   UNL d   1     -50.000  11.812  23.590  0.00  0.00     0.021 A 
ENDROOT
BRANCH   5  11
ATOM     11  C   UNL d   1     -46.484  13.041  23.074  0.00  0.00     0.253 C 
ATOM     12  O   UNL d   1     -46.041  13.350  23.698  0.00  0.00    -0.281 OA
ENDBRANCH   5  11
TORSDOF 1
ENDMDL
MODEL 5
REMARK VINA RESULT:      -6.3      1.400      2.597
REMARK  1 active torsions:
REMARK  status: ('A' for Active; 'I' for Inactive)
REMARK    1  A    between atoms: C_8  and  CA_5 
ROOT
ATOM      1  N   UNL d   1     -48.203  13.483  22.941  0.00  0.00    -0.224 NA
ATOM      2  C   UNL d   1     -47.841  12.793  23.192  0.00  0.00     0.162 A 
ATOM      3  N   UNL d   1     -48.290  12.122  23.325  0.00  0.00    -0.225 NA
ATOM      4  C   UNL d   1     -47.025  12.780  23.311  0.00  0.00     0.036 A 
ATOM      5  CA  UNL d   1     -47.763  14.163  22.804  0.00  0.00     0.125 A 
ATOM      6  C   UNL d   1     -46.575  13.457  23.177  0.00  0.00     0.005 A 
ATOM      7  C   UNL d   1     -46.947  14.150  22.923  0.00  0.00     0.023 A 
ATOM      8  C   UNL d   1     -47.919  11.428  23.579  0.00  0.00     0.101 A 
ATOM      9  C   UNL d   1     -46.653  12.095  23.563  0.00  0.00     0.005 A 
ATOM     10  C   UNL d   1     -47.103  11.415  23.698  0.00  0.00     0.021 A 
ENDROOT
BRANCH   5  11
ATOM     11  C   UNL d   1     -48.125  14.848  22.554  0.00  0.00     0.253 C 
ATOM     12  O   UNL d   1     -48.714  15.193  23.016  0.00  0.00    -0.281 OA
ENDBRANCH   5  11
TORSDOF 1
ENDMDL
MODEL 6
REMARK VINA RESULT:      -6.3      1.635      2.732
REMARK  1 active torsions:
REMARK  status: ('A' for Active; 'I' for Inactive)
REMARK    1  A    between atoms: C_8  and  CA_5 
ROOT
ATOM      1  N   UNL d   1     -48.778  13.903  22.876  0.00  0.00    -0.224 NA
ATOM      2  C   UNL d   1     -47.988  13.702  22.950  0.00  0.00     0.162 A 
ATOM      3  N   UNL d   1     -47.779  12.951  23.197  0.00  0.00    -0.225 NA
ATOM      4  C   UNL d   1     -47.407  14.261  22.776  0.00  0.00     0.036 A 
ATOM      5  CA  UNL d   1     -49.001  14.654  22.630  0.00  0.00     0.125 A 
ATOM      6  C   UNL d   1     -47.620  15.017  22.529  0.00  0.00     0.005 A 
ATOM      7  C   UNL d   1     -48.419  15.214  22.456  0.00  0.00     0.023 A 
ATOM      8  C   UNL d   1     -46.980  12.754  23.270  0.00  0.00     0.101 A 
ATOM      9  C   UNL d   1     -46.614  14.071  22.847  0.00  0.00     0.005 A 
ATOM     10  C   UNL d   1     -46.399  13.313  23.095  0.00  0.00     0.021 A 
ENDROOT
BRANCH   5  11
ATOM     11  C   UNL d   1     -49.787  14.851  22.557  0.00  0.00     0.253 C 
ATOM     12  O   UNL d   1     -50.011  15.645  22.530  0.00  0.00    -0.281 OA
ENDBRANCH   5  11
TORSDOF 1
ENDMDL
MODEL 7
REMARK VINA RESULT:      -5.7      1.383      1.852
REMARK  1 active torsions:
REMARK  status: ('A' for Active; 'I' for Inactive)
REMARK    1  A    between atoms: C_8  and  CA_5 
ROOT
ATOM      1  N   UNL d   1     -48.032  13.021  23.106  0.00  0.00    -0.224 NA
ATOM      2  C   UNL d   1     -48.377  13.745  22.946  0.00  0.00     0.162 A 
ATOM      3  N   UNL d   1     -47.914  14.373  22.698  0.00  0.00    -0.225 NA
ATOM      4  C   UNL d   1     -49.192  13.838  23.037  0.00  0.00     0.036 A 
ATOM      5  CA  UNL d   1     -48.486  12.384  23.356  0.00  0.00     0.125 A 
ATOM      6  C   UNL d   1     -49.656  13.206  23.287  0.00  0.00     0.005 A 
ATOM      7  C   UNL d   1     -49.301  12.477  23.447  0.00  0.00     0.023 A 
ATOM      8  C   UNL d   1     -48.268  15.102  22.538  0.00  0.00     0.101 A 
ATOM      9  C   UNL d   1     -49.547  14.559  22.880  0.00  0.00     0.005 A 
ATOM     10  C   UNL d   1     -49.082  15.195  22.629  0.00  0.00     0.021 A 
ENDROOT
BRANCH   5  11
ATOM     11  C   UNL d   1     -48.141  11.664  23.514  0.00  0.00     0.253 C 
ATOM     12  O   UNL d   1     -48.553  10.967  23.356  0.00  0.00    -0.281 OA
ENDBRANCH   5  11
TORSDOF 1
ENDMDL
MODEL 8
REMARK VINA RESULT:      -5.6      1.783      2.464
REMARK  1 active torsions:
REMARK  status: ('A' for Active; 'I' for Inactive)
REMARK    1  A    between atoms: C_8  and  CA_5 
ROOT
ATOM      1  N   UNL d   1     -45.816  12.480  22.894  0.00  0.00    -0.224 NA
ATOM      2  C   UNL d   1     -46.557  12.226  23.128  0.00  0.00     0.162 A 
ATOM      3  N   UNL d   1     -46.649  11.481  23.455  0.00  0.00    -0.225 NA
ATOM      4  C   UNL d   1     -47.209  12.724  23.035  0.00  0.00     0.036 A 
ATOM      5  CA  UNL d   1     -45.712  13.226  22.565  0.00  0.00     0.125 A 
ATOM      6  C   UNL d   1     -47.114  13.473  22.706  0.00  0.00     0.005 A 
ATOM      7  C   UNL d   1     -46.363  13.724  22.471  0.00  0.00     0.023 A 
ATOM      8  C   UNL d   1     -47.400  11.229  23.690  0.00  0.00     0.101 A 
ATOM      9  C   UNL d   1     -47.955  12.479  23.267  0.00  0.00     0.005 A 
ATOM     10  C   UNL d   1     -48.051  11.727  23.596  0.00  0.00     0.021 A 
ENDROOT
BRANCH   5  11
ATOM     11  C   UNL d   1     -44.973  13.477  22.332  0.00  0.00     0.253 C 
ATOM     12  O   UNL d   1     -44.598  13.113  21.693  0.00  0.00    -0.281 OA
ENDBRANCH   5  11
TORSDOF 1
ENDMDL
MODEL 9
REMARK VINA RESULT:      -5.3      9.188     10.036
REMARK  1 active torsions:
REMARK  status: ('A' for Active; 'I' for Inactive)
REMARK    1  A    between atoms: C_8  and  CA_5 
ROOT
ATOM      1  N   UNL d   1     -40.088  15.066  16.636  0.00  0.00    -0.224 NA
ATOM      2  C   UNL d   1     -39.582  14.475  16.891  0.00  0.00     0.162 A 
ATOM      3  N   UNL d   1     -38.932  14.270  16.438  0.00  0.00    -0.225 NA
ATOM      4  C   UNL d   1     -39.731  14.090  17.606  0.00  0.00     0.036 A 
ATOM      5  CA  UNL d   1     -40.743  15.280  17.083  0.00  0.00     0.125 A 
ATOM      6  C   UNL d   1     -40.385  14.298  18.060  0.00  0.00     0.005 A 
ATOM      7  C   UNL d   1     -40.893  14.895  17.797  0.00  0.00     0.023 A 
ATOM      8  C   UNL d   1     -38.424  13.673  16.701  0.00  0.00     0.101 A 
ATOM      9  C   UNL d   1     -39.231  13.498  17.870  0.00  0.00     0.005 A 
ATOM     10  C   UNL d   1     -38.574  13.288  17.415  0.00  0.00     0.021 A 
ENDROOT
BRANCH   5  11
ATOM     11  C   UNL d   1     -41.245  15.868  16.827  0.00  0.00     0.253 C 
ATOM     12  O   UNL d   1     -41.952  15.669  16.451  0.00  0.00    -0.281 OA
ENDBRANCH   5  11
TORSDOF 1
ENDMDL
