MODEL 1
REMARK VINA RESULT:      90.9      0.000      0.000
REMARK  7 active torsions:
REMARK  status: ('A' for Active; 'I' for Inactive)
REMARK    1  A    between atoms: C_11  and  C_4 
REMARK    2  A    between atoms: N_12  and  C_5 
REMARK    3  A    between atoms: C_10  and  C_8 
REMARK    4  A    between atoms: C_15  and  N_12 
REMARK    5  A    between atoms: N_13  and  C_19 
REMARK    6  A    between atoms: C_14  and  C_15 
REMARK    7  A    between atoms: C_19  and  C_14 
ROOT
ATOM      1  C   UNL d   1     -55.188-101.501 -39.536  0.00  0.00     0.168 A 
ATOM      2  N   UNL d   1     -55.056-101.359 -40.351  0.00  0.00    -0.184 N 
ATOM      3  N   UNL d   1     -55.293-100.871 -39.026  0.00  0.00    -0.231 NA
ATOM      4  C   UNL d   1     -55.212-102.258 -39.254  0.00  0.00     0.057 A 
ATOM      5  C   UNL d   1     -55.036-100.596 -40.610  0.00  0.00     0.217 A 
ATOM      6  N   UNL d   1     -54.977-102.740 -40.565  0.00  0.00    -0.160 NA
ATOM      7  C   UNL d   1     -55.140 -99.957 -40.108  0.00  0.00     0.067 A 
ATOM      8  C   UNL d   1     -55.270-100.096 -39.305  0.00  0.00     0.064 A 
ATOM      9  C   UNL d   1     -55.107-102.879 -39.762  0.00  0.00     0.124 A 
ENDROOT
BRANCH   5  10
ATOM     10  N   UNL d   1     -54.902-100.452 -41.439  0.00  0.00    -0.380 NA
BRANCH  10  11
ATOM     11  C   UNL d   1     -54.711-100.267 -42.241  0.00  0.00     0.164 C 
BRANCH  11  12
ATOM     12  C   UNL d   1     -55.337-100.017 -42.761  0.00  0.00     0.054 C 
BRANCH  12  13
ATOM     13  C   UNL d   1     -55.148 -99.792 -43.567  0.00  0.00     0.083 C 
BRANCH  13  14
ATOM     14  N   UNL d   1     -55.764 -99.531 -44.085  0.00  0.00    -0.300 N 
ATOM     15  C   UNL d   1     -55.513-100.066 -44.694  0.00  0.00     0.100 C 
ATOM     16  C   UNL d   1     -56.437 -99.025 -44.231  0.00  0.00     0.100 C 
ENDBRANCH  13  14
ENDBRANCH  12  13
ENDBRANCH  11  12
ENDBRANCH  10  11
ENDBRANCH   5  10
BRANCH   8  17
ATOM     17  C   UNL d   1     -55.380 -99.442 -38.769  0.00  0.00     0.036 C 
ATOM     18  C   UNL d   1     -55.494 -98.796 -38.240  0.00  0.00     0.006 C 
ATOM     19  C   UNL d   1     -54.711 -98.972 -38.535  0.00  0.00     0.006 C 
ATOM     20  C   UNL d   1     -56.162 -99.262 -38.471  0.00  0.00     0.006 C 
ENDBRANCH   8  17
BRANCH   4  21
ATOM     21  C   UNL d   1     -55.342-102.398 -38.451  0.00  0.00     0.004 A 
ATOM     22  C   UNL d   1     -56.089-102.352 -38.160  0.00  0.00     0.000 A 
ATOM     23  C   UNL d   1     -56.219-102.491 -37.358  0.00  0.00     0.000 A 
ATOM     24  C   UNL d   1     -55.598-102.672 -36.871  0.00  0.00     0.000 A 
ATOM     25  C   UNL d   1     -54.841-102.717 -37.173  0.00  0.00     0.000 A 
ATOM     26  C   UNL d   1     -54.711-102.578 -37.976  0.00  0.00     0.000 A 
ENDBRANCH   4  21
TORSDOF 7
ENDMDL
