MODEL 1
REMARK VINA RESULT:      80.8      0.000      0.000
REMARK  7 active torsions:
REMARK  status: ('A' for Active; 'I' for Inactive)
REMARK    1  A    between atoms: N_7  and  C_2 
REMARK    2  A    between atoms: N_9  and  C_3 
REMARK    3  A    between atoms: C_14  and  N_7 
REMARK    4  A    between atoms: C_8  and  C_12 
REMARK    5  A    between atoms: O_19  and  C_8 
REMARK    6  A    between atoms: C_17  and  N_9 
REMARK    7  A    between atoms: C_29  and  O_19 
ROOT
ATOM      1  N   UNL d   1     -48.122  30.103  34.164  0.00  0.00    -0.038 NA
ATOM      2  C   UNL d   1     -47.741  30.350  34.861  0.00  0.00     0.202 A 
ATOM      3  C   UNL d   1     -48.467  29.351  34.121  0.00  0.00     0.753 A 
ATOM      4  N   UNL d   1     -48.429  28.843  34.783  0.00  0.00    -0.038 NA
ATOM      5  C   UNL d   1     -47.705  29.845  35.512  0.00  0.00     0.154 A 
ATOM      6  C   UNL d   1     -48.050  29.091  35.472  0.00  0.00     0.202 A 
ATOM      7  N   UNL d   1     -47.323  30.105  36.197  0.00  0.00    -0.236 NA
ATOM      8  N   UNL d   1     -48.010  28.593  36.126  0.00  0.00    -0.222 NA
ATOM      9  C   UNL d   1     -47.287  29.595  36.855  0.00  0.00     0.120 A 
ATOM     10  C   UNL d   1     -47.627  28.844  36.824  0.00  0.00     0.121 A 
ENDROOT
BRANCH   3  11
ATOM     11  N   UNL d   1     -48.841  29.109  33.437  0.00  0.00    -0.059 NA
BRANCH  11  12
ATOM     12  C   UNL d   1     -49.434  28.536  33.468  0.00  0.00     0.100 A 
ATOM     13  C   UNL d   1     -50.206  28.723  33.308  0.00  0.00     0.020 A 
ATOM     14  C   UNL d   1     -50.801  28.147  33.339  0.00  0.00     0.007 A 
ATOM     15  C   UNL d   1     -50.608  27.367  33.536  0.00  0.00     0.064 A 
ATOM     16  C   UNL d   1     -49.821  27.166  33.701  0.00  0.00     0.007 A 
ATOM     17  C   UNL d   1     -49.235  27.745  33.668  0.00  0.00     0.020 A 
BRANCH  15  18
ATOM     18  C   UNL d   1     -51.195  26.799  33.566  0.00  0.00     0.300 C 
ATOM     19  O   UNL d   1     -51.961  26.983  33.306  0.00  0.00    -0.259 OA
BRANCH  18  20
ATOM     20  O   UNL d   1     -51.037  26.041  33.854  0.00  0.00    -0.271 OA
BRANCH  20  21
ATOM     21  C   UNL d   1     -51.238  25.375  33.411  0.00  0.00     0.126 C 
ATOM     22  C   UNL d   1     -52.029  25.181  33.305  0.00  0.00     0.029 C 
ENDBRANCH  20  21
ENDBRANCH  18  20
ENDBRANCH  15  18
ENDBRANCH  11  12
ENDBRANCH   3  11
BRANCH   2  23
ATOM     23  N   UNL d   1     -47.397  31.103  34.901  0.00  0.00    -0.225 NA
BRANCH  23  24
ATOM     24  C   UNL d   1     -47.740  31.736  34.502  0.00  0.00     0.083 A 
ATOM     25  C   UNL d   1     -47.322  32.119  33.893  0.00  0.00     0.020 A 
ATOM     26  C   UNL d   1     -47.670  32.751  33.496  0.00  0.00     0.013 A 
ATOM     27  C   UNL d   1     -48.427  33.009  33.696  0.00  0.00     0.058 A 
ATOM     28  C   UNL d   1     -48.846  32.626  34.305  0.00  0.00     0.013 A 
ATOM     29 CL   UNL d   1     -48.783  33.640  33.306  0.00  0.00    -0.082 Cl
ATOM     30  C   UNL d   1     -48.498  31.992  34.704  0.00  0.00     0.020 A 
ENDBRANCH  23  24
ENDBRANCH   2  23
TORSDOF 7
ENDMDL
MODEL 2
REMARK VINA RESULT:      82.3      3.778      6.647
REMARK  7 active torsions:
REMARK  status: ('A' for Active; 'I' for Inactive)
REMARK    1  A    between atoms: N_7  and  C_2 
REMARK    2  A    between atoms: N_9  and  C_3 
REMARK    3  A    between atoms: C_14  and  N_7 
REMARK    4  A    between atoms: C_8  and  C_12 
REMARK    5  A    between atoms: O_19  and  C_8 
REMARK    6  A    between atoms: C_17  and  N_9 
REMARK    7  A    between atoms: C_29  and  O_19 
ROOT
ATOM      1  N   UNL d   1     -51.306  25.055  33.310  0.00  0.00    -0.038 NA
ATOM      2  C   UNL d   1     -51.573  24.272  33.396  0.00  0.00     0.202 A 
ATOM      3  C   UNL d   1     -51.834  25.688  33.399  0.00  0.00     0.753 A 
ATOM      4  N   UNL d   1     -52.635  25.532  33.576  0.00  0.00    -0.038 NA
ATOM      5  C   UNL d   1     -52.364  24.123  33.571  0.00  0.00     0.154 A 
ATOM      6  C   UNL d   1     -52.895  24.755  33.661  0.00  0.00     0.202 A 
ATOM      7  N   UNL d   1     -52.614  23.340  33.654  0.00  0.00    -0.236 NA
ATOM      8  N   UNL d   1     -53.685  24.598  33.836  0.00  0.00    -0.222 NA
ATOM      9  C   UNL d   1     -53.415  23.190  33.831  0.00  0.00     0.120 A 
ATOM     10  C   UNL d   1     -53.949  23.812  33.922  0.00  0.00     0.121 A 
ENDROOT
BRANCH   3  11
ATOM     11  N   UNL d   1     -51.572  26.457  33.314  0.00  0.00    -0.059 NA
BRANCH  11  12
ATOM     12  C   UNL d   1     -50.973  26.747  33.801  0.00  0.00     0.100 A 
ATOM     13  C   UNL d   1     -51.024  26.690  34.608  0.00  0.00     0.020 A 
ATOM     14  C   UNL d   1     -50.421  26.982  35.097  0.00  0.00     0.007 A 
ATOM     15  C   UNL d   1     -49.756  27.339  34.759  0.00  0.00     0.064 A 
ATOM     16  C   UNL d   1     -49.694  27.402  33.936  0.00  0.00     0.007 A 
ATOM     17  C   UNL d   1     -50.297  27.109  33.456  0.00  0.00     0.020 A 
BRANCH  15  18
ATOM     18  C   UNL d   1     -49.163  27.627  35.242  0.00  0.00     0.300 C 
ATOM     19  O   UNL d   1     -49.158  27.436  36.050  0.00  0.00    -0.259 OA
BRANCH  18  20
ATOM     20  O   UNL d   1     -48.564  28.108  34.937  0.00  0.00    -0.271 OA
BRANCH  20  21
ATOM     21  C   UNL d   1     -47.935  28.346  35.414  0.00  0.00     0.126 C 
ATOM     22  C   UNL d   1     -47.170  28.114  35.226  0.00  0.00     0.029 C 
ENDBRANCH  20  21
ENDBRANCH  18  20
ENDBRANCH  15  18
ENDBRANCH  11  12
ENDBRANCH   3  11
BRANCH   2  23
ATOM     23  N   UNL d   1     -51.043  23.641  33.306  0.00  0.00    -0.225 NA
BRANCH  23  24
ATOM     24  C   UNL d   1     -50.323  23.645  33.708  0.00  0.00     0.083 A 
ATOM     25  C   UNL d   1     -49.630  23.880  33.313  0.00  0.00     0.020 A 
ATOM     26  C   UNL d   1     -48.913  23.883  33.718  0.00  0.00     0.013 A 
ATOM     27  C   UNL d   1     -48.876  23.656  34.510  0.00  0.00     0.058 A 
ATOM     28  C   UNL d   1     -49.569  23.421  34.905  0.00  0.00     0.013 A 
ATOM     29 CL   UNL d   1     -48.164  23.656  34.923  0.00  0.00    -0.082 Cl
ATOM     30  C   UNL d   1     -50.289  23.418  34.500  0.00  0.00     0.020 A 
ENDBRANCH  23  24
ENDBRANCH   2  23
TORSDOF 7
ENDMDL
MODEL 3
REMARK VINA RESULT:      83.5      4.303      6.109
REMARK  7 active torsions:
REMARK  status: ('A' for Active; 'I' for Inactive)
REMARK    1  A    between atoms: N_7  and  C_2 
REMARK    2  A    between atoms: N_9  and  C_3 
REMARK    3  A    between atoms: C_14  and  N_7 
REMARK    4  A    between atoms: C_8  and  C_12 
REMARK    5  A    between atoms: O_19  and  C_8 
REMARK    6  A    between atoms: C_17  and  N_9 
REMARK    7  A    between atoms: C_29  and  O_19 
ROOT
ATOM      1  N   UNL d   1     -51.373  26.766  34.815  0.00  0.00    -0.038 NA
ATOM      2  C   UNL d   1     -51.000  26.518  34.114  0.00  0.00     0.202 A 
ATOM      3  C   UNL d   1     -50.919  27.009  35.465  0.00  0.00     0.753 A 
ATOM      4  N   UNL d   1     -50.086  27.002  35.410  0.00  0.00    -0.038 NA
ATOM      5  C   UNL d   1     -50.178  26.513  34.064  0.00  0.00     0.154 A 
ATOM      6  C   UNL d   1     -49.721  26.756  34.713  0.00  0.00     0.202 A 
ATOM      7  N   UNL d   1     -49.823  26.264  33.360  0.00  0.00    -0.236 NA
ATOM      8  N   UNL d   1     -48.899  26.748  34.655  0.00  0.00    -0.222 NA
ATOM      9  C   UNL d   1     -48.991  26.260  33.310  0.00  0.00     0.120 A 
ATOM     10  C   UNL d   1     -48.529  26.499  33.950  0.00  0.00     0.121 A 
ENDROOT
BRANCH   3  11
ATOM     11  N   UNL d   1     -51.285  27.252  36.153  0.00  0.00    -0.059 NA
BRANCH  11  12
ATOM     12  C   UNL d   1     -51.517  26.697  36.719  0.00  0.00     0.100 A 
ATOM     13  C   UNL d   1     -51.117  26.622  37.420  0.00  0.00     0.020 A 
ATOM     14  C   UNL d   1     -51.350  26.065  37.988  0.00  0.00     0.007 A 
ATOM     15  C   UNL d   1     -52.001  25.576  37.840  0.00  0.00     0.064 A 
ATOM     16  C   UNL d   1     -52.416  25.645  37.127  0.00  0.00     0.007 A 
ATOM     17  C   UNL d   1     -52.178  26.202  36.566  0.00  0.00     0.020 A 
BRANCH  15  18
ATOM     18  C   UNL d   1     -52.230  25.027  38.400  0.00  0.00     0.300 C 
ATOM     19  O   UNL d   1     -51.813  24.313  38.475  0.00  0.00    -0.259 OA
BRANCH  18  20
ATOM     20  O   UNL d   1     -52.874  25.172  38.897  0.00  0.00    -0.271 OA
BRANCH  20  21
ATOM     21  C   UNL d   1     -53.185  24.569  39.366  0.00  0.00     0.126 C 
ATOM     22  C   UNL d   1     -53.444  24.737  40.127  0.00  0.00     0.029 C 
ENDBRANCH  20  21
ENDBRANCH  18  20
ENDBRANCH  15  18
ENDBRANCH  11  12
ENDBRANCH   3  11
BRANCH   2  23
ATOM     23  N   UNL d   1     -51.457  26.276  33.465  0.00  0.00    -0.225 NA
BRANCH  23  24
ATOM     24  C   UNL d   1     -51.751  25.507  33.431  0.00  0.00     0.083 A 
ATOM     25  C   UNL d   1     -51.228  24.866  33.343  0.00  0.00     0.020 A 
ATOM     26  C   UNL d   1     -51.527  24.100  33.309  0.00  0.00     0.013 A 
ATOM     27  C   UNL d   1     -52.338  23.961  33.362  0.00  0.00     0.058 A 
ATOM     28  C   UNL d   1     -52.861  24.602  33.450  0.00  0.00     0.013 A 
ATOM     29 CL   UNL d   1     -52.646  23.199  33.329  0.00  0.00    -0.082 Cl
ATOM     30  C   UNL d   1     -52.563  25.371  33.484  0.00  0.00     0.020 A 
ENDBRANCH  23  24
ENDBRANCH   2  23
TORSDOF 7
ENDMDL
