MODEL 1
REMARK VINA RESULT:      -9.5      0.000      0.000
REMARK  5 active torsions:
REMARK  status: ('A' for Active; 'I' for Inactive)
REMARK    1  A    between atoms: C_11  and  C_1 
REMARK    2  A    between atoms: C_14  and  N_4 
REMARK    3  A    between atoms: C_5  and  S_12 
REMARK    4  A    between atoms: C_16  and  C_11 
REMARK    5  A    between atoms: S_12  and  C_16 
ROOT
ATOM      1  C   UNL d   1      51.609  33.643  52.785  0.00  0.00     0.057 A 
ATOM      2  C   UNL d   1      52.313  33.934  53.123  0.00  0.00     0.067 A 
ATOM      3  N   UNL d   1      52.711  33.305  53.455  0.00  0.00    -0.306 N 
ATOM      4  C   UNL d   1      52.266  32.609  53.331  0.00  0.00     0.064 A 
ATOM      5  C   UNL d   1      51.582  32.836  52.913  0.00  0.00     0.022 A 
ATOM      6  C   UNL d   1      52.575  34.749  53.124  0.00  0.00     0.019 C 
ATOM      7  C   UNL d   1      52.466  31.839  53.578  0.00  0.00     0.019 C 
ENDROOT
BRANCH   1   8
ATOM      8  C   UNL d   1      51.100  34.167  52.410  0.00  0.00     0.204 C 
ATOM      9  O   UNL d   1      51.274  34.408  51.649  0.00  0.00    -0.286 OA
BRANCH   8  10
ATOM     10  C   UNL d   1      50.422  34.447  52.796  0.00  0.00     0.080 C 
BRANCH  10  11
ATOM     11  S   UNL d   1      49.756  34.657  52.367  0.00  0.00    -0.044 SA
BRANCH  11  12
ATOM     12  C   UNL d   1      49.176  35.146  52.701  0.00  0.00     0.201 A 
ATOM     13  N   UNL d   1      48.468  35.386  52.374  0.00  0.00    -0.268 N 
ATOM     14  C   UNL d   1      48.078  35.872  52.925  0.00  0.00     0.171 A 
ATOM     15  C   UNL d   1      48.108  35.230  51.630  0.00  0.00     0.084 A 
ATOM     16  C   UNL d   1      47.332  36.200  52.734  0.00  0.00     0.039 A 
ATOM     17  N   UNL d   1      48.555  35.921  53.583  0.00  0.00    -0.128 NA
ATOM     18  C   UNL d   1      46.979  36.047  52.005  0.00  0.00     0.005 A 
ATOM     19  C   UNL d   1      47.371  35.565  51.466  0.00  0.00     0.019 A 
ATOM     20  N   UNL d   1      49.217  35.483  53.447  0.00  0.00    -0.121 NA
ENDBRANCH  11  12
ENDBRANCH  10  11
ENDBRANCH   8  10
ENDBRANCH   1   8
BRANCH   3  21
ATOM     21  C   UNL d   1      53.437  33.262  53.864  0.00  0.00     0.064 A 
ATOM     22  C   UNL d   1      53.466  33.431  54.672  0.00  0.00     0.018 A 
ATOM     23  C   UNL d   1      54.182  33.389  55.075  0.00  0.00     0.002 A 
ATOM     24  C   UNL d   1      54.863  33.181  54.679  0.00  0.00     0.000 A 
ATOM     25  C   UNL d   1      54.837  33.010  53.864  0.00  0.00     0.002 A 
ATOM     26  C   UNL d   1      54.123  33.053  53.469  0.00  0.00     0.018 A 
ENDBRANCH   3  21
TORSDOF 5
ENDMDL
MODEL 2
REMARK VINA RESULT:      -7.5      1.092      1.800
REMARK  5 active torsions:
REMARK  status: ('A' for Active; 'I' for Inactive)
REMARK    1  A    between atoms: C_11  and  C_1 
REMARK    2  A    between atoms: C_14  and  N_4 
REMARK    3  A    between atoms: C_5  and  S_12 
REMARK    4  A    between atoms: C_16  and  C_11 
REMARK    5  A    between atoms: S_12  and  C_16 
ROOT
ATOM      1  C   UNL d   1      51.123  34.277  53.105  0.00  0.00     0.057 A 
ATOM      2  C   UNL d   1      51.363  33.509  53.323  0.00  0.00     0.067 A 
ATOM      3  N   UNL d   1      52.173  33.465  53.234  0.00  0.00    -0.306 N 
ATOM      4  C   UNL d   1      52.454  34.201  52.958  0.00  0.00     0.064 A 
ATOM      5  C   UNL d   1      51.789  34.696  52.882  0.00  0.00     0.022 A 
ATOM      6  C   UNL d   1      50.854  32.877  53.595  0.00  0.00     0.019 C 
ATOM      7  C   UNL d   1      53.245  34.401  52.791  0.00  0.00     0.019 C 
ENDROOT
BRANCH   1   8
ATOM      8  C   UNL d   1      50.326  34.471  53.144  0.00  0.00     0.204 C 
ATOM      9  O   UNL d   1      49.981  34.566  53.878  0.00  0.00    -0.286 OA
BRANCH   8  10
ATOM     10  C   UNL d   1      49.879  34.569  52.452  0.00  0.00     0.080 C 
BRANCH  10  11
ATOM     11  S   UNL d   1      49.202  35.030  52.457  0.00  0.00    -0.044 SA
BRANCH  11  12
ATOM     12  C   UNL d   1      48.646  34.967  51.846  0.00  0.00     0.201 A 
ATOM     13  N   UNL d   1      47.910  35.316  51.794  0.00  0.00    -0.268 N 
ATOM     14  C   UNL d   1      47.561  35.085  51.075  0.00  0.00     0.171 A 
ATOM     15  C   UNL d   1      47.491  35.829  52.313  0.00  0.00     0.084 A 
ATOM     16  C   UNL d   1      46.798  35.364  50.876  0.00  0.00     0.039 A 
ATOM     17  N   UNL d   1      48.091  34.596  50.697  0.00  0.00    -0.128 NA
ATOM     18  C   UNL d   1      46.388  35.866  51.384  0.00  0.00     0.005 A 
ATOM     19  C   UNL d   1      46.739  36.091  52.093  0.00  0.00     0.019 A 
ATOM     20  N   UNL d   1      48.745  34.525  51.162  0.00  0.00    -0.121 NA
ENDBRANCH  11  12
ENDBRANCH  10  11
ENDBRANCH   8  10
ENDBRANCH   1   8
BRANCH   3  21
ATOM     21  C   UNL d   1      52.711  32.842  53.367  0.00  0.00     0.064 A 
ATOM     22  C   UNL d   1      52.712  32.183  52.870  0.00  0.00     0.018 A 
ATOM     23  C   UNL d   1      53.243  31.569  53.001  0.00  0.00     0.002 A 
ATOM     24  C   UNL d   1      53.770  31.609  53.623  0.00  0.00     0.000 A 
ATOM     25  C   UNL d   1      53.771  32.272  54.127  0.00  0.00     0.002 A 
ATOM     26  C   UNL d   1      53.241  32.879  53.990  0.00  0.00     0.018 A 
ENDBRANCH   3  21
TORSDOF 5
ENDMDL
MODEL 3
REMARK VINA RESULT:      -7.4      1.030      5.748
REMARK  5 active torsions:
REMARK  status: ('A' for Active; 'I' for Inactive)
REMARK    1  A    between atoms: C_11  and  C_1 
REMARK    2  A    between atoms: C_14  and  N_4 
REMARK    3  A    between atoms: C_5  and  S_12 
REMARK    4  A    between atoms: C_16  and  C_11 
REMARK    5  A    between atoms: S_12  and  C_16 
ROOT
ATOM      1  C   UNL d   1      49.728  34.698  52.389  0.00  0.00     0.057 A 
ATOM      2  C   UNL d   1      49.069  35.125  52.668  0.00  0.00     0.067 A 
ATOM      3  N   UNL d   1      48.516  35.154  52.069  0.00  0.00    -0.306 N 
ATOM      4  C   UNL d   1      48.817  34.746  51.405  0.00  0.00     0.064 A 
ATOM      5  C   UNL d   1      49.572  34.468  51.619  0.00  0.00     0.022 A 
ATOM      6  C   UNL d   1      48.983  35.473  53.445  0.00  0.00     0.019 C 
ATOM      7  C   UNL d   1      48.437  34.639  50.672  0.00  0.00     0.019 C 
ENDROOT
BRANCH   1   8
ATOM      8  C   UNL d   1      50.371  34.586  52.887  0.00  0.00     0.204 C 
ATOM      9  O   UNL d   1      50.498  35.122  53.490  0.00  0.00    -0.286 OA
BRANCH   8  10
ATOM     10  C   UNL d   1      50.882  33.941  52.781  0.00  0.00     0.080 C 
BRANCH  10  11
ATOM     11  S   UNL d   1      51.582  33.892  53.203  0.00  0.00    -0.044 SA
BRANCH  11  12
ATOM     12  C   UNL d   1      52.088  33.244  53.104  0.00  0.00     0.201 A 
ATOM     13  N   UNL d   1      52.750  33.048  53.541  0.00  0.00    -0.268 N 
ATOM     14  C   UNL d   1      53.072  32.348  53.228  0.00  0.00     0.171 A 
ATOM     15  C   UNL d   1      53.120  33.416  54.201  0.00  0.00     0.084 A 
ATOM     16  C   UNL d   1      53.759  32.017  53.571  0.00  0.00     0.039 A 
ATOM     17  N   UNL d   1      52.600  32.126  52.601  0.00  0.00    -0.128 NA
ATOM     18  C   UNL d   1      54.121  32.378  54.218  0.00  0.00     0.005 A 
ATOM     19  C   UNL d   1      53.798  33.069  54.522  0.00  0.00     0.019 A 
ATOM     20  N   UNL d   1      52.008  32.666  52.528  0.00  0.00    -0.121 NA
ENDBRANCH  11  12
ENDBRANCH  10  11
ENDBRANCH   8  10
ENDBRANCH   1   8
BRANCH   3  21
ATOM     21  C   UNL d   1      47.759  35.502  52.030  0.00  0.00     0.064 A 
ATOM     22  C   UNL d   1      47.685  36.315  51.904  0.00  0.00     0.018 A 
ATOM     23  C   UNL d   1      46.938  36.658  51.865  0.00  0.00     0.002 A 
ATOM     24  C   UNL d   1      46.271  36.198  51.952  0.00  0.00     0.000 A 
ATOM     25  C   UNL d   1      46.343  35.378  52.080  0.00  0.00     0.002 A 
ATOM     26  C   UNL d   1      47.088  35.043  52.117  0.00  0.00     0.018 A 
ENDBRANCH   3  21
TORSDOF 5
ENDMDL
