MODEL 1
REMARK VINA RESULT:     -11.9      0.000      0.000
REMARK  4 active torsions:
REMARK  status: ('A' for Active; 'I' for Inactive)
REMARK    1  A    between atoms: N_5  and  C_9 
REMARK    2  A    between atoms: O_11  and  C_8 
REMARK    3  A    between atoms: C_20  and  O_11 
REMARK    4  A    between atoms: C_21  and  C_20 
ROOT
ATOM      1  C   UNL d   1      53.250  33.923  54.150  0.00  0.00     0.009 A 
ATOM      2  C   UNL d   1      52.658  33.929  53.581  0.00  0.00     0.046 A 
ATOM      3  C   UNL d   1      53.455  34.608  54.546  0.00  0.00     0.064 A 
ATOM      4  C   UNL d   1      53.064  35.311  54.374  0.00  0.00     0.300 A 
ATOM      5  C   UNL d   1      52.259  34.626  53.401  0.00  0.00     0.105 A 
ATOM      6  O   UNL d   1      52.470  35.327  53.807  0.00  0.00    -0.273 OA
ATOM      7  C   UNL d   1      52.453  33.229  53.182  0.00  0.00     0.102 A 
ATOM      8  C   UNL d   1      51.667  34.644  52.836  0.00  0.00     0.025 A 
ATOM      9  C   UNL d   1      51.850  33.242  52.604  0.00  0.00     0.025 A 
ATOM     10  O   UNL d   1      53.265  36.018  54.773  0.00  0.00    -0.259 OA
ATOM     11  C   UNL d   1      51.464  33.949  52.439  0.00  0.00     0.004 A 
ATOM     12  C   UNL d   1      53.643  33.216  54.322  0.00  0.00     0.000 A 
ATOM     13  C   UNL d   1      54.050  34.604  55.118  0.00  0.00     0.005 A 
ATOM     14  C   UNL d   1      50.863  33.959  51.862  0.00  0.00     0.000 C 
ATOM     15  C   UNL d   1      54.241  33.194  54.892  0.00  0.00     0.000 A 
ATOM     16  C   UNL d   1      54.443  33.897  55.291  0.00  0.00     0.000 A 
ENDROOT
BRANCH   7  17
ATOM     17  O   UNL d   1      52.842  32.535  53.354  0.00  0.00    -0.305 OA
BRANCH  17  18
ATOM     18  C   UNL d   1      52.730  31.862  52.876  0.00  0.00     0.122 C 
BRANCH  18  19
ATOM     19  C   UNL d   1      52.852  31.115  53.196  0.00  0.00     0.025 A 
ATOM     20  C   UNL d   1      52.215  30.692  53.507  0.00  0.00     0.004 A 
ATOM     21  C   UNL d   1      52.326  29.947  53.828  0.00  0.00     0.024 A 
ATOM     22  C   UNL d   1      53.079  29.617  53.841  0.00  0.00     0.127 A 
ATOM     23  C   UNL d   1      53.725  30.027  53.535  0.00  0.00     0.024 A 
ATOM     24  C   UNL d   1      53.608  30.788  53.208  0.00  0.00     0.004 A 
BRANCH  22  25
ATOM     25  N   UNL d   1      53.201  28.866  54.163  0.00  0.00    -0.114 N 
ATOM     26  O   UNL d   1      53.256  28.209  53.679  0.00  0.00    -0.532 OA
ATOM     27  O   UNL d   1      53.269  28.785  54.982  0.00  0.00    -0.532 OA
ENDBRANCH  22  25
ENDBRANCH  18  19
ENDBRANCH  17  18
ENDBRANCH   7  17
TORSDOF 4
ENDMDL
MODEL 2
REMARK VINA RESULT:     -10.6      2.171      4.047
REMARK  4 active torsions:
REMARK  status: ('A' for Active; 'I' for Inactive)
REMARK    1  A    between atoms: N_5  and  C_9 
REMARK    2  A    between atoms: O_11  and  C_8 
REMARK    3  A    between atoms: C_20  and  O_11 
REMARK    4  A    between atoms: C_21  and  C_20 
ROOT
ATOM      1  C   UNL d   1      53.509  33.880  54.287  0.00  0.00     0.009 A 
ATOM      2  C   UNL d   1      53.483  33.105  54.019  0.00  0.00     0.046 A 
ATOM      3  C   UNL d   1      54.096  34.125  54.801  0.00  0.00     0.064 A 
ATOM      4  C   UNL d   1      54.667  33.588  55.053  0.00  0.00     0.300 A 
ATOM      5  C   UNL d   1      54.048  32.559  54.264  0.00  0.00     0.105 A 
ATOM      6  O   UNL d   1      54.648  32.810  54.790  0.00  0.00    -0.273 OA
ATOM      7  C   UNL d   1      52.883  32.863  53.496  0.00  0.00     0.102 A 
ATOM      8  C   UNL d   1      54.031  31.784  54.002  0.00  0.00     0.025 A 
ATOM      9  C   UNL d   1      52.861  32.072  53.227  0.00  0.00     0.025 A 
ATOM     10  O   UNL d   1      55.272  33.825  55.578  0.00  0.00    -0.259 OA
ATOM     11  C   UNL d   1      53.436  31.542  53.484  0.00  0.00     0.004 A 
ATOM     12  C   UNL d   1      52.935  34.419  54.035  0.00  0.00     0.000 A 
ATOM     13  C   UNL d   1      54.124  34.904  55.072  0.00  0.00     0.005 A 
ATOM     14  C   UNL d   1      53.412  30.755  53.213  0.00  0.00     0.000 C 
ATOM     15  C   UNL d   1      52.948  35.203  54.296  0.00  0.00     0.000 A 
ATOM     16  C   UNL d   1      53.551  35.443  54.819  0.00  0.00     0.000 A 
ENDROOT
BRANCH   7  17
ATOM     17  O   UNL d   1      52.320  33.396  53.250  0.00  0.00    -0.305 OA
BRANCH  17  18
ATOM     18  C   UNL d   1      51.803  33.201  52.627  0.00  0.00     0.122 C 
BRANCH  18  19
ATOM     19  C   UNL d   1      51.116  33.640  52.519  0.00  0.00     0.025 A 
ATOM     20  C   UNL d   1      51.020  34.091  51.836  0.00  0.00     0.004 A 
ATOM     21  C   UNL d   1      50.340  34.532  51.718  0.00  0.00     0.024 A 
ATOM     22  C   UNL d   1      49.747  34.525  52.288  0.00  0.00     0.127 A 
ATOM     23  C   UNL d   1      49.828  34.079  52.977  0.00  0.00     0.024 A 
ATOM     24  C   UNL d   1      50.525  33.630  53.092  0.00  0.00     0.004 A 
BRANCH  22  25
ATOM     25  N   UNL d   1      49.057  34.966  52.180  0.00  0.00    -0.114 N 
ATOM     26  O   UNL d   1      48.640  34.922  51.478  0.00  0.00    -0.532 OA
ATOM     27  O   UNL d   1      48.792  35.455  52.791  0.00  0.00    -0.532 OA
ENDBRANCH  22  25
ENDBRANCH  18  19
ENDBRANCH  17  18
ENDBRANCH   7  17
TORSDOF 4
ENDMDL
MODEL 3
REMARK VINA RESULT:     -10.1      0.696      2.264
REMARK  4 active torsions:
REMARK  status: ('A' for Active; 'I' for Inactive)
REMARK    1  A    between atoms: N_5  and  C_9 
REMARK    2  A    between atoms: O_11  and  C_8 
REMARK    3  A    between atoms: C_20  and  O_11 
REMARK    4  A    between atoms: C_21  and  C_20 
ROOT
ATOM      1  C   UNL d   1      52.663  34.044  53.837  0.00  0.00     0.009 A 
ATOM      2  C   UNL d   1      53.381  33.962  54.228  0.00  0.00     0.046 A 
ATOM      3  C   UNL d   1      52.251  34.749  53.866  0.00  0.00     0.064 A 
ATOM      4  C   UNL d   1      52.557  35.384  54.290  0.00  0.00     0.300 A 
ATOM      5  C   UNL d   1      53.697  34.589  54.656  0.00  0.00     0.105 A 
ATOM      6  O   UNL d   1      53.275  35.311  54.684  0.00  0.00    -0.273 OA
ATOM      7  C   UNL d   1      53.796  33.242  54.195  0.00  0.00     0.102 A 
ATOM      8  C   UNL d   1      54.412  34.518  55.049  0.00  0.00     0.025 A 
ATOM      9  C   UNL d   1      54.525  33.164  54.594  0.00  0.00     0.025 A 
ATOM     10  O   UNL d   1      52.145  36.110  54.327  0.00  0.00    -0.259 OA
ATOM     11  C   UNL d   1      54.824  33.804  55.017  0.00  0.00     0.004 A 
ATOM     12  C   UNL d   1      52.355  33.406  53.410  0.00  0.00     0.000 A 
ATOM     13  C   UNL d   1      51.529  34.834  53.474  0.00  0.00     0.005 A 
ATOM     14  C   UNL d   1      55.552  33.724  55.414  0.00  0.00     0.000 C 
ATOM     15  C   UNL d   1      51.635  33.473  53.012  0.00  0.00     0.000 A 
ATOM     16  C   UNL d   1      51.222  34.196  53.047  0.00  0.00     0.000 A 
ENDROOT
BRANCH   7  17
ATOM     17  O   UNL d   1      53.489  32.616  53.774  0.00  0.00    -0.305 OA
BRANCH  17  18
ATOM     18  C   UNL d   1      53.979  31.979  53.555  0.00  0.00     0.122 C 
BRANCH  18  19
ATOM     19  C   UNL d   1      53.678  31.214  53.569  0.00  0.00     0.025 A 
ATOM     20  C   UNL d   1      53.390  30.874  52.875  0.00  0.00     0.004 A 
ATOM     21  C   UNL d   1      53.087  30.113  52.878  0.00  0.00     0.024 A 
ATOM     22  C   UNL d   1      53.071  29.684  53.580  0.00  0.00     0.127 A 
ATOM     23  C   UNL d   1      53.356  30.011  54.281  0.00  0.00     0.024 A 
ATOM     24  C   UNL d   1      53.664  30.789  54.273  0.00  0.00     0.004 A 
BRANCH  22  25
ATOM     25  N   UNL d   1      52.769  28.916  53.594  0.00  0.00    -0.114 N 
ATOM     26  O   UNL d   1      52.226  28.671  53.033  0.00  0.00    -0.532 OA
ATOM     27  O   UNL d   1      53.020  28.394  54.182  0.00  0.00    -0.532 OA
ENDBRANCH  22  25
ENDBRANCH  18  19
ENDBRANCH  17  18
ENDBRANCH   7  17
TORSDOF 4
ENDMDL
MODEL 4
REMARK VINA RESULT:      -9.2      2.285      4.427
REMARK  4 active torsions:
REMARK  status: ('A' for Active; 'I' for Inactive)
REMARK    1  A    between atoms: N_5  and  C_9 
REMARK    2  A    between atoms: O_11  and  C_8 
REMARK    3  A    between atoms: C_20  and  O_11 
REMARK    4  A    between atoms: C_21  and  C_20 
ROOT
ATOM      1  C   UNL d   1      52.851  32.673  53.547  0.00  0.00     0.009 A 
ATOM      2  C   UNL d   1      52.926  33.441  53.828  0.00  0.00     0.046 A 
ATOM      3  C   UNL d   1      53.320  32.072  53.843  0.00  0.00     0.064 A 
ATOM      4  C   UNL d   1      53.874  32.238  54.428  0.00  0.00     0.300 A 
ATOM      5  C   UNL d   1      53.477  33.619  54.413  0.00  0.00     0.105 A 
ATOM      6  O   UNL d   1      53.957  33.003  54.715  0.00  0.00    -0.273 OA
ATOM      7  C   UNL d   1      52.446  34.048  53.524  0.00  0.00     0.102 A 
ATOM      8  C   UNL d   1      53.561  34.380  54.701  0.00  0.00     0.025 A 
ATOM      9  C   UNL d   1      52.528  34.826  53.814  0.00  0.00     0.025 A 
ATOM     10  O   UNL d   1      54.360  31.632  54.738  0.00  0.00    -0.259 OA
ATOM     11  C   UNL d   1      53.085  34.983  54.399  0.00  0.00     0.004 A 
ATOM     12  C   UNL d   1      52.294  32.507  52.959  0.00  0.00     0.000 A 
ATOM     13  C   UNL d   1      53.245  31.300  53.562  0.00  0.00     0.005 A 
ATOM     14  C   UNL d   1      53.164  35.761  54.686  0.00  0.00     0.000 C 
ATOM     15  C   UNL d   1      52.206  31.740  52.666  0.00  0.00     0.000 A 
ATOM     16  C   UNL d   1      52.688  31.133  52.974  0.00  0.00     0.000 A 
ENDROOT
BRANCH   7  17
ATOM     17  O   UNL d   1      51.899  33.880  52.945  0.00  0.00    -0.305 OA
BRANCH  17  18
ATOM     18  C   UNL d   1      51.666  34.471  52.406  0.00  0.00     0.122 C 
BRANCH  18  19
ATOM     19  C   UNL d   1      50.896  34.474  52.119  0.00  0.00     0.025 A 
ATOM     20  C   UNL d   1      50.759  34.382  51.311  0.00  0.00     0.004 A 
ATOM     21  C   UNL d   1      49.995  34.384  51.014  0.00  0.00     0.024 A 
ATOM     22  C   UNL d   1      49.359  34.479  51.527  0.00  0.00     0.127 A 
ATOM     23  C   UNL d   1      49.481  34.572  52.337  0.00  0.00     0.024 A 
ATOM     24  C   UNL d   1      50.263  34.570  52.636  0.00  0.00     0.004 A 
BRANCH  22  25
ATOM     25  N   UNL d   1      48.586  34.483  51.239  0.00  0.00    -0.114 N 
ATOM     26  O   UNL d   1      48.337  33.914  50.706  0.00  0.00    -0.532 OA
ATOM     27  O   UNL d   1      48.063  35.069  51.495  0.00  0.00    -0.532 OA
ENDBRANCH  22  25
ENDBRANCH  18  19
ENDBRANCH  17  18
ENDBRANCH   7  17
TORSDOF 4
ENDMDL
