MODEL 1
REMARK VINA RESULT:      62.5      0.000      0.000
REMARK  4 active torsions:
REMARK  status: ('A' for Active; 'I' for Inactive)
REMARK    1  A    between atoms: C_11  and  C_3 
REMARK    2  A    between atoms: N_10  and  C_4 
REMARK    3  A    between atoms: C_12  and  N_10 
REMARK    4  A    between atoms: C_13  and  C_12 
ROOT
ATOM      1  C   UNL d   1     -55.297-100.697 -43.442  0.00  0.00     0.167 A 
ATOM      2  N   UNL d   1     -55.124-100.914 -42.666  0.00  0.00    -0.195 N 
ATOM      3  C   UNL d   1     -55.511 -99.907 -43.440  0.00  0.00     0.057 A 
ATOM      4  C   UNL d   1     -54.891-101.684 -42.497  0.00  0.00     0.167 A 
ATOM      5  N   UNL d   1     -55.233-100.256 -42.193  0.00  0.00    -0.161 NA
ATOM      6  N   UNL d   1     -55.237-101.250 -44.048  0.00  0.00    -0.227 NA
ATOM      7  C   UNL d   1     -54.830-102.240 -43.109  0.00  0.00     0.058 A 
ATOM      8  C   UNL d   1     -55.469 -99.639 -42.661  0.00  0.00     0.124 A 
ATOM      9  C   UNL d   1     -55.001-102.025 -43.876  0.00  0.00     0.086 A 
ATOM     10  C   UNL d   1     -54.934-102.595 -44.469  0.00  0.00     0.021 C 
ENDROOT
BRANCH   4  11
ATOM     11  N   UNL d   1     -54.718-101.901 -41.721  0.00  0.00    -0.225 NA
BRANCH  11  12
ATOM     12  C   UNL d   1     -54.990-102.618 -41.424  0.00  0.00     0.101 C 
BRANCH  12  13
ATOM     13  C   UNL d   1     -55.276-102.664 -40.644  0.00  0.00     0.019 A 
ATOM     14  C   UNL d   1     -56.075-102.833 -40.502  0.00  0.00     0.002 A 
ATOM     15  C   UNL d   1     -56.357-102.878 -39.734  0.00  0.00     0.000 A 
ATOM     16  C   UNL d   1     -55.844-102.756 -39.094  0.00  0.00     0.000 A 
ATOM     17  C   UNL d   1     -55.049-102.588 -39.237  0.00  0.00     0.000 A 
ATOM     18  C   UNL d   1     -54.765-102.543 -40.014  0.00  0.00     0.002 A 
ENDBRANCH  12  13
ENDBRANCH  11  12
ENDBRANCH   4  11
BRANCH   3  19
ATOM     19  C   UNL d   1     -55.718 -99.523 -44.143  0.00  0.00     0.004 A 
ATOM     20  C   UNL d   1     -55.121 -99.235 -44.637  0.00  0.00     0.000 A 
ATOM     21  C   UNL d   1     -55.319 -98.853 -45.337  0.00  0.00     0.000 A 
ATOM     22  C   UNL d   1     -56.117 -98.756 -45.548  0.00  0.00     0.000 A 
ATOM     23  C   UNL d   1     -56.706 -99.046 -45.049  0.00  0.00     0.000 A 
ATOM     24  C   UNL d   1     -56.504 -99.430 -44.346  0.00  0.00     0.000 A 
ENDBRANCH   3  19
TORSDOF 4
ENDMDL
