MODEL 1
REMARK VINA RESULT:      61.9      0.000      0.000
REMARK  5 active torsions:
REMARK  status: ('A' for Active; 'I' for Inactive)
REMARK    1  A    between atoms: N_7  and  C_1 
REMARK    2  A    between atoms: C_14  and  N_4 
REMARK    3  A    between atoms: S_5  and  N_8 
REMARK    4  A    between atoms: C_13  and  S_5 
REMARK       I    between atoms: C_9  and  N_7 
REMARK    5  A    between atoms: C_15  and  C_9 
ROOT
ATOM      1  N   UNL d   1      44.875 -16.670  39.121  0.00  0.00    -0.202 NA
ATOM      2  C   UNL d   1      44.752 -17.480  39.268  0.00  0.00     0.279 C 
ATOM      3  O   UNL d   1      44.352 -17.953  38.713  0.00  0.00    -0.265 OA
ENDROOT
BRANCH   2   4
ATOM      4  C   UNL d   1      45.026 -17.822  39.967  0.00  0.00     0.061 A 
ATOM      5  C   UNL d   1      45.692 -18.310  39.971  0.00  0.00     0.025 A 
ATOM      6  C   UNL d   1      45.960 -18.647  40.674  0.00  0.00     0.092 A 
ATOM      7  N   UNL d   1      45.564 -18.499  41.379  0.00  0.00    -0.229 N 
ATOM      8  C   UNL d   1      44.890 -18.009  41.388  0.00  0.00     0.092 A 
ATOM      9  C   UNL d   1      44.624 -17.673  40.688  0.00  0.00     0.025 A 
BRANCH   7  10
ATOM     10  S   UNL d   1      45.839 -18.844  42.090  0.00  0.00     0.271 S 
ATOM     11  O   UNL d   1      46.566 -19.009  41.730  0.00  0.00    -0.200 OA
ATOM     12  O   UNL d   1      45.103 -18.671  42.438  0.00  0.00    -0.200 OA
BRANCH  10  13
ATOM     13  C   UNL d   1      46.102 -19.181  42.794  0.00  0.00     0.104 A 
ATOM     14  C   UNL d   1      46.347 -19.970  42.810  0.00  0.00     0.013 A 
ATOM     15  C   UNL d   1      46.610 -20.308  43.514  0.00  0.00     0.001 A 
ATOM     16  C   UNL d   1      46.630 -19.855  44.208  0.00  0.00     0.000 A 
ATOM     17  C   UNL d   1      46.384 -19.063  44.194  0.00  0.00     0.001 A 
ATOM     18  C   UNL d   1      46.119 -18.726  43.481  0.00  0.00     0.013 A 
ENDBRANCH  10  13
ENDBRANCH   7  10
ENDBRANCH   2   4
BRANCH   1  19
ATOM     19  C   UNL d   1      44.599 -16.333  38.421  0.00  0.00     0.160 A 
ATOM     20  C   UNL d   1      43.814 -16.151  38.251  0.00  0.00     0.298 A 
ATOM     21  N   UNL d   1      43.789 -15.826  37.496  0.00  0.00    -0.209 N 
ATOM     22  O   UNL d   1      43.173 -16.273  38.749  0.00  0.00    -0.263 OA
ATOM     23  N   UNL d   1      44.554 -15.808  37.203  0.00  0.00    -0.238 N 
ATOM     24  C   UNL d   1      45.057 -16.121  37.773  0.00  0.00     0.104 A 
ATOM     25  C   UNL d   1      44.780 -15.524  36.464  0.00  0.00     0.120 C 
ATOM     26  C   UNL d   1      45.874 -16.207  37.706  0.00  0.00     0.022 C 
BRANCH  21  27
ATOM     27  C   UNL d   1      43.110 -15.565  37.108  0.00  0.00     0.085 A 
ATOM     28  C   UNL d   1      42.558 -16.118  36.855  0.00  0.00     0.019 A 
ATOM     29  C   UNL d   1      41.876 -15.864  36.466  0.00  0.00     0.002 A 
ATOM     30  C   UNL d   1      41.754 -15.055  36.333  0.00  0.00     0.000 A 
ATOM     31  C   UNL d   1      42.315 -14.504  36.591  0.00  0.00     0.002 A 
ATOM     32  C   UNL d   1      42.993 -14.759  36.978  0.00  0.00     0.019 A 
ENDBRANCH  21  27
ENDBRANCH   1  19
TORSDOF 5
ENDMDL
