MODEL 1
REMARK VINA RESULT:      56.9      0.000      0.000
REMARK  4 active torsions:
REMARK  status: ('A' for Active; 'I' for Inactive)
REMARK    1  A    between atoms: S_9  and  C_1 
REMARK       I    between atoms: N_4  and  C_5 
REMARK    2  A    between atoms: C_5  and  C_13 
REMARK    3  A    between atoms: C_8  and  C_10 
REMARK    4  A    between atoms: C_13  and  S_9 
ROOT
ATOM      1  N   UNL d   1     -51.327  26.083  33.466  0.00  0.00    -0.272 N 
ATOM      2  C   UNL d   1     -50.995  26.795  33.484  0.00  0.00     0.271 C 
ATOM      3  C   UNL d   1     -51.984  24.598  33.434  0.00  0.00     0.062 A 
ATOM      4  C   UNL d   1     -50.887  25.432  33.585  0.00  0.00     0.083 A 
ATOM      5  C   UNL d   1     -52.138  25.944  33.326  0.00  0.00     0.083 A 
ATOM      6  O   UNL d   1     -51.431  27.424  33.367  0.00  0.00    -0.266 OA
ATOM      7  C   UNL d   1     -51.188  24.690  33.574  0.00  0.00     0.024 A 
ATOM      8  C   UNL d   1     -52.484  25.221  33.306  0.00  0.00     0.024 A 
ENDROOT
BRANCH   2   9
ATOM      9  C   UNL d   1     -50.192  26.905  33.624  0.00  0.00     0.098 C 
BRANCH   9  10
ATOM     10  S   UNL d   1     -49.868  27.658  33.417  0.00  0.00    -0.056 SA
BRANCH  10  11
ATOM     11  C   UNL d   1     -49.297  27.972  33.902  0.00  0.00     0.141 A 
ATOM     12  N   UNL d   1     -48.532  27.719  33.946  0.00  0.00    -0.232 NA
ATOM     13  C   UNL d   1     -48.200  28.247  34.538  0.00  0.00     0.088 A 
ATOM     14  C   UNL d   1     -47.362  28.232  34.822  0.00  0.00     0.020 A 
ATOM     15  C   UNL d   1     -48.765  28.780  34.816  0.00  0.00     0.049 A 
ATOM     16  C   UNL d   1     -47.140  28.789  35.400  0.00  0.00     0.002 A 
ATOM     17  C   UNL d   1     -47.728  29.360  35.704  0.00  0.00     0.001 A 
ATOM     18  C   UNL d   1     -48.506  29.338  35.408  0.00  0.00     0.008 A 
ATOM     19  S   UNL d   1     -49.438  28.610  34.424  0.00  0.00    -0.060 SA
ENDBRANCH  10  11
ENDBRANCH   9  10
ENDBRANCH   2   9
BRANCH   3  20
ATOM     20  C   UNL d   1     -52.309  23.799  33.422  0.00  0.00     0.297 C 
ATOM     21  O   UNL d   1     -53.103  23.724  33.517  0.00  0.00    -0.264 OA
ATOM     22  N   UNL d   1     -51.794  23.195  33.318  0.00  0.00    -0.102 N 
ENDBRANCH   3  20
TORSDOF 4
ENDMDL
MODEL 2
REMARK VINA RESULT:      58.2      2.349      5.898
REMARK  4 active torsions:
REMARK  status: ('A' for Active; 'I' for Inactive)
REMARK    1  A    between atoms: S_9  and  C_1 
REMARK       I    between atoms: N_4  and  C_5 
REMARK    2  A    between atoms: C_5  and  C_13 
REMARK    3  A    between atoms: C_8  and  C_10 
REMARK    4  A    between atoms: C_13  and  S_9 
ROOT
ATOM      1  N   UNL d   1     -48.003  29.580  35.132  0.00  0.00    -0.272 N 
ATOM      2  C   UNL d   1     -48.273  28.842  35.140  0.00  0.00     0.271 C 
ATOM      3  C   UNL d   1     -47.470  31.114  35.097  0.00  0.00     0.062 A 
ATOM      4  C   UNL d   1     -48.382  30.142  34.717  0.00  0.00     0.083 A 
ATOM      5  C   UNL d   1     -47.322  29.838  35.541  0.00  0.00     0.083 A 
ATOM      6  O   UNL d   1     -47.898  28.301  35.547  0.00  0.00    -0.266 OA
ATOM      7  C   UNL d   1     -48.138  30.905  34.684  0.00  0.00     0.024 A 
ATOM      8  C   UNL d   1     -47.040  30.589  35.538  0.00  0.00     0.024 A 
ENDROOT
BRANCH   2   9
ATOM      9  C   UNL d   1     -48.947  28.614  34.728  0.00  0.00     0.098 C 
BRANCH   9  10
ATOM     10  S   UNL d   1     -48.860  27.983  34.173  0.00  0.00    -0.056 SA
BRANCH  10  11
ATOM     11  C   UNL d   1     -49.521  27.554  33.977  0.00  0.00     0.141 A 
ATOM     12  N   UNL d   1     -50.256  27.863  33.851  0.00  0.00    -0.232 NA
ATOM     13  C   UNL d   1     -50.719  27.161  33.668  0.00  0.00     0.088 A 
ATOM     14  C   UNL d   1     -51.583  27.156  33.477  0.00  0.00     0.020 A 
ATOM     15  C   UNL d   1     -50.254  26.480  33.692  0.00  0.00     0.049 A 
ATOM     16  C   UNL d   1     -51.938  26.420  33.314  0.00  0.00     0.002 A 
ATOM     17  C   UNL d   1     -51.457  25.690  33.336  0.00  0.00     0.001 A 
ATOM     18  C   UNL d   1     -50.647  25.742  33.520  0.00  0.00     0.008 A 
ATOM     19  S   UNL d   1     -49.519  26.724  33.882  0.00  0.00    -0.060 SA
ENDBRANCH  10  11
ENDBRANCH   9  10
ENDBRANCH   2   9
BRANCH   3  20
ATOM     20  C   UNL d   1     -47.207  31.935  35.062  0.00  0.00     0.297 C 
ATOM     21  O   UNL d   1     -46.705  32.184  35.637  0.00  0.00    -0.264 OA
ATOM     22  N   UNL d   1     -47.485  32.384  34.461  0.00  0.00    -0.102 N 
ENDBRANCH   3  20
TORSDOF 4
ENDMDL
MODEL 3
REMARK VINA RESULT:      59.1      1.143      1.494
REMARK  4 active torsions:
REMARK  status: ('A' for Active; 'I' for Inactive)
REMARK    1  A    between atoms: S_9  and  C_1 
REMARK       I    between atoms: N_4  and  C_5 
REMARK    2  A    between atoms: C_5  and  C_13 
REMARK    3  A    between atoms: C_8  and  C_10 
REMARK    4  A    between atoms: C_13  and  S_9 
ROOT
ATOM      1  N   UNL d   1     -50.178  26.192  33.643  0.00  0.00    -0.272 N 
ATOM      2  C   UNL d   1     -49.492  26.567  33.727  0.00  0.00     0.271 C 
ATOM      3  C   UNL d   1     -51.611  25.447  33.479  0.00  0.00     0.062 A 
ATOM      4  C   UNL d   1     -50.862  26.568  33.798  0.00  0.00     0.083 A 
ATOM      5  C   UNL d   1     -50.255  25.399  33.394  0.00  0.00     0.083 A 
ATOM      6  O   UNL d   1     -48.831  26.194  33.575  0.00  0.00    -0.266 OA
ATOM      7  C   UNL d   1     -51.580  26.221  33.724  0.00  0.00     0.024 A 
ATOM      8  C   UNL d   1     -50.952  25.010  33.306  0.00  0.00     0.024 A 
ENDROOT
BRANCH   2   9
ATOM      9  C   UNL d   1     -49.443  27.349  33.974  0.00  0.00     0.098 C 
BRANCH   9  10
ATOM     10  S   UNL d   1     -49.210  27.483  34.775  0.00  0.00    -0.056 SA
BRANCH  10  11
ATOM     11  C   UNL d   1     -48.784  28.155  34.941  0.00  0.00     0.141 A 
ATOM     12  N   UNL d   1     -48.358  28.282  35.614  0.00  0.00    -0.232 NA
ATOM     13  C   UNL d   1     -48.036  29.068  35.479  0.00  0.00     0.088 A 
ATOM     14  C   UNL d   1     -47.512  29.508  36.041  0.00  0.00     0.020 A 
ATOM     15  C   UNL d   1     -48.277  29.371  34.751  0.00  0.00     0.049 A 
ATOM     16  C   UNL d   1     -47.254  30.266  35.815  0.00  0.00     0.002 A 
ATOM     17  C   UNL d   1     -47.502  30.600  35.045  0.00  0.00     0.001 A 
ATOM     18  C   UNL d   1     -47.995  30.150  34.547  0.00  0.00     0.008 A 
ATOM     19  S   UNL d   1     -48.736  28.808  34.421  0.00  0.00    -0.060 SA
ENDBRANCH  10  11
ENDBRANCH   9  10
ENDBRANCH   2   9
BRANCH   3  20
ATOM     20  C   UNL d   1     -52.384  25.072  33.399  0.00  0.00     0.297 C 
ATOM     21  O   UNL d   1     -53.028  25.553  33.422  0.00  0.00    -0.264 OA
ATOM     22  N   UNL d   1     -52.400  24.278  33.309  0.00  0.00    -0.102 N 
ENDBRANCH   3  20
TORSDOF 4
ENDMDL
