MODEL 1
REMARK VINA RESULT:      -3.6      0.000      0.000
REMARK  5 active torsions:
REMARK  status: ('A' for Active; 'I' for Inactive)
REMARK    1  A    between atoms: C_3  and  C_1 
REMARK    2  A    between atoms: N_2  and  C_11 
REMARK    3  A    between atoms: N_6  and  C_3 
REMARK    4  A    between atoms: C_14  and  C_5 
REMARK    5  A    between atoms: C_10  and  N_7 
ROOT
ATOM      1  C   UNL d   1      32.689  17.892 -24.110  0.00  0.00     0.143 C 
ATOM      2  S   UNL d   1      33.241  17.789 -24.694  0.00  0.00    -0.057 SA
ENDROOT
BRANCH   1   3
ATOM      3  C   UNL d   1      32.825  18.380 -23.484  0.00  0.00     0.126 A 
ATOM      4  O   UNL d   1      32.652  19.185 -23.382  0.00  0.00    -0.305 OA
ATOM      5  C   UNL d   1      32.918  19.397 -22.625  0.00  0.00     0.100 A 
ATOM      6  C   UNL d   1      33.236  18.758 -22.284  0.00  0.00     0.027 A 
ATOM      7  C   UNL d   1      33.188  18.112 -22.803  0.00  0.00     0.029 A 
BRANCH   5   8
ATOM      8  C   UNL d   1      32.900  20.101 -22.225  0.00  0.00     0.023 A 
ATOM      9  C   UNL d   1      32.540  20.157 -21.476  0.00  0.00     0.004 A 
ATOM     10  C   UNL d   1      32.528  20.883 -21.079  0.00  0.00     0.024 A 
ATOM     11  C   UNL d   1      32.868  21.558 -21.412  0.00  0.00     0.127 A 
ATOM     12  C   UNL d   1      33.229  21.485 -22.170  0.00  0.00     0.024 A 
ATOM     13  C   UNL d   1      33.241  20.776 -22.559  0.00  0.00     0.004 A 
BRANCH  11  14
ATOM     14  N   UNL d   1      32.850  22.262 -21.013  0.00  0.00    -0.114 N 
ATOM     15  O   UNL d   1      32.669  22.999 -21.358  0.00  0.00    -0.532 OA
ATOM     16  O   UNL d   1      33.007  22.346 -20.213  0.00  0.00    -0.532 OA
ENDBRANCH  11  14
ENDBRANCH   5   8
ENDBRANCH   1   3
BRANCH   1  17
ATOM     17  N   UNL d   1      31.945  17.478 -24.151  0.00  0.00    -0.291 N 
ATOM     18  C   UNL d   1      31.283  17.853 -24.485  0.00  0.00     0.100 A 
ATOM     19  C   UNL d   1      30.560  17.462 -24.529  0.00  0.00     0.100 A 
ATOM     20  N   UNL d   1      30.500  16.689 -24.235  0.00  0.00    -0.301 N 
ATOM     21  C   UNL d   1      31.146  16.327 -23.910  0.00  0.00     0.100 A 
ATOM     22  C   UNL d   1      31.872  16.722 -23.867  0.00  0.00     0.100 A 
BRANCH  20  23
ATOM     23  C   UNL d   1      29.776  16.298 -24.279  0.00  0.00     0.064 A 
ATOM     24  C   UNL d   1      29.437  16.058 -23.560  0.00  0.00     0.016 A 
ATOM     25  C   UNL d   1      29.796  16.198 -22.824  0.00  0.00     0.002 C 
ATOM     26  C   UNL d   1      28.716  15.667 -23.581  0.00  0.00     0.001 A 
ATOM     27  C   UNL d   1      28.335  15.515 -24.310  0.00  0.00     0.000 A 
ATOM     28  C   UNL d   1      28.683  15.757 -25.002  0.00  0.00     0.002 A 
ATOM     29  C   UNL d   1      29.401  16.147 -24.986  0.00  0.00     0.018 A 
ENDBRANCH  20  23
ENDBRANCH   1  17
TORSDOF 5
ENDMDL
MODEL 2
REMARK VINA RESULT:      -2.1      2.026      5.634
REMARK  5 active torsions:
REMARK  status: ('A' for Active; 'I' for Inactive)
REMARK    1  A    between atoms: C_3  and  C_1 
REMARK    2  A    between atoms: N_2  and  C_11 
REMARK    3  A    between atoms: N_6  and  C_3 
REMARK    4  A    between atoms: C_14  and  C_5 
REMARK    5  A    between atoms: C_10  and  N_7 
ROOT
ATOM      1  C   UNL d   1      32.692  17.637 -24.179  0.00  0.00     0.143 C 
ATOM      2  S   UNL d   1      33.239  17.500 -24.761  0.00  0.00    -0.057 SA
ENDROOT
BRANCH   1   3
ATOM      3  C   UNL d   1      32.057  17.153 -24.076  0.00  0.00     0.126 A 
ATOM      4  O   UNL d   1      31.252  17.332 -23.994  0.00  0.00    -0.305 OA
ATOM      5  C   UNL d   1      30.849  16.611 -23.904  0.00  0.00     0.100 A 
ATOM      6  C   UNL d   1      31.379  16.025 -23.930  0.00  0.00     0.027 A 
ATOM      7  C   UNL d   1      32.139  16.340 -24.037  0.00  0.00     0.029 A 
BRANCH   5   8
ATOM      8  C   UNL d   1      30.064  16.442 -23.803  0.00  0.00     0.023 A 
ATOM      9  C   UNL d   1      29.478  16.883 -24.195  0.00  0.00     0.004 A 
ATOM     10  C   UNL d   1      28.679  16.699 -24.082  0.00  0.00     0.024 A 
ATOM     11  C   UNL d   1      28.449  16.081 -23.584  0.00  0.00     0.127 A 
ATOM     12  C   UNL d   1      29.054  15.643 -23.194  0.00  0.00     0.024 A 
ATOM     13  C   UNL d   1      29.835  15.823 -23.304  0.00  0.00     0.004 A 
BRANCH  11  14
ATOM     14  N   UNL d   1      27.665  15.911 -23.483  0.00  0.00    -0.114 N 
ATOM     15  O   UNL d   1      27.191  15.506 -24.037  0.00  0.00    -0.532 OA
ATOM     16  O   UNL d   1      27.227  16.115 -22.821  0.00  0.00    -0.532 OA
ENDBRANCH  11  14
ENDBRANCH   5   8
ENDBRANCH   1   3
BRANCH   1  17
ATOM     17  N   UNL d   1      32.783  18.306 -23.659  0.00  0.00    -0.291 N 
ATOM     18  C   UNL d   1      32.928  18.182 -22.850  0.00  0.00     0.100 A 
ATOM     19  C   UNL d   1      33.017  18.822 -22.340  0.00  0.00     0.100 A 
ATOM     20  N   UNL d   1      32.961  19.592 -22.642  0.00  0.00    -0.301 N 
ATOM     21  C   UNL d   1      32.820  19.708 -23.430  0.00  0.00     0.100 A 
ATOM     22  C   UNL d   1      32.730  19.065 -23.941  0.00  0.00     0.100 A 
BRANCH  20  23
ATOM     23  C   UNL d   1      33.050  20.232 -22.131  0.00  0.00     0.064 A 
ATOM     24  C   UNL d   1      33.150  20.978 -22.481  0.00  0.00     0.016 A 
ATOM     25  C   UNL d   1      33.161  21.092 -23.304  0.00  0.00     0.002 C 
ATOM     26  C   UNL d   1      33.241  21.629 -21.990  0.00  0.00     0.001 A 
ATOM     27  C   UNL d   1      33.233  21.540 -21.158  0.00  0.00     0.000 A 
ATOM     28  C   UNL d   1      33.134  20.802 -20.836  0.00  0.00     0.002 A 
ATOM     29  C   UNL d   1      33.043  20.150 -21.321  0.00  0.00     0.018 A 
ENDBRANCH  20  23
ENDBRANCH   1  17
TORSDOF 5
ENDMDL
