MODEL 1
REMARK VINA RESULT:      -8.5      0.000      0.000
REMARK  4 active torsions:
REMARK  status: ('A' for Active; 'I' for Inactive)
REMARK    1  A    between atoms: S_11  and  C_7 
REMARK    2  A    between atoms: C_17  and  C_10 
REMARK    3  A    between atoms: C_16  and  S_11 
REMARK    4  A    between atoms: C_20  and  C_17 
ROOT
ATOM      1  N   UNL d   1     -46.227  13.357  22.865  0.00  0.00    -0.224 N 
ATOM      2  N   UNL d   1     -46.875  12.189  23.394  0.00  0.00    -0.241 N 
ATOM      3  C   UNL d   1     -46.187  12.581  23.168  0.00  0.00     0.343 A 
ATOM      4  C   UNL d   1     -47.605  12.574  23.317  0.00  0.00     0.160 A 
ATOM      5  C   UNL d   1     -46.956  13.734  22.791  0.00  0.00     0.273 A 
ATOM      6  C   UNL d   1     -47.645  13.342  23.017  0.00  0.00     0.115 A 
ATOM      7  C   UNL d   1     -48.375  13.719  22.943  0.00  0.00     0.120 A 
ATOM      8  N   UNL d   1     -48.303  12.182  23.544  0.00  0.00    -0.209 NA
ATOM      9  N   UNL d   1     -49.064  13.332  23.168  0.00  0.00    -0.220 NA
ATOM     10  C   UNL d   1     -49.031  12.560  23.470  0.00  0.00     0.165 A 
ATOM     11  O   UNL d   1     -45.453  12.204  23.241  0.00  0.00    -0.245 OA
ATOM     12  O   UNL d   1     -46.992  14.502  22.490  0.00  0.00    -0.266 OA
ATOM     13  C   UNL d   1     -45.537  13.740  22.641  0.00  0.00     0.107 C 
ATOM     14  C   UNL d   1     -46.835  11.421  23.695  0.00  0.00     0.105 C 
ENDROOT
BRANCH   7  15
ATOM     15  S   UNL d   1     -48.410  14.488  22.642  0.00  0.00    -0.068 SA
BRANCH  15  16
ATOM     16  C   UNL d   1     -49.086  14.948  22.763  0.00  0.00     0.031 A 
ATOM     17  C   UNL d   1     -49.257  15.394  23.434  0.00  0.00     0.006 A 
ATOM     18  C   UNL d   1     -49.983  15.769  23.332  0.00  0.00     0.001 A 
ATOM     19  C   UNL d   1     -50.264  15.549  22.581  0.00  0.00     0.001 A 
ATOM     20  C   UNL d   1     -49.706  15.040  22.231  0.00  0.00     0.006 A 
ENDBRANCH  15  16
ENDBRANCH   7  15
BRANCH  10  21
ATOM     21  C   UNL d   1     -49.725  12.172  23.696  0.00  0.00     0.039 C 
BRANCH  21  22
ATOM     22  C   UNL d   1     -50.246  11.892  23.116  0.00  0.00     0.003 C 
ATOM     23  C   UNL d   1     -51.040  11.790  23.282  0.00  0.00     0.000 C 
ENDBRANCH  21  22
ENDBRANCH  10  21
TORSDOF 4
ENDMDL
MODEL 2
REMARK VINA RESULT:      -5.9      8.506     10.303
REMARK  4 active torsions:
REMARK  status: ('A' for Active; 'I' for Inactive)
REMARK    1  A    between atoms: S_11  and  C_7 
REMARK    2  A    between atoms: C_17  and  C_10 
REMARK    3  A    between atoms: C_16  and  S_11 
REMARK    4  A    between atoms: C_20  and  C_17 
ROOT
ATOM      1  N   UNL d   1     -39.275  14.395  20.704  0.00  0.00    -0.224 N 
ATOM      2  N   UNL d   1     -40.342  15.261  20.283  0.00  0.00    -0.241 N 
ATOM      3  C   UNL d   1     -39.942  14.863  20.884  0.00  0.00     0.343 A 
ATOM      4  C   UNL d   1     -40.075  15.190  19.502  0.00  0.00     0.160 A 
ATOM      5  C   UNL d   1     -39.015  14.329  19.925  0.00  0.00     0.273 A 
ATOM      6  C   UNL d   1     -39.415  14.727  19.324  0.00  0.00     0.115 A 
ATOM      7  C   UNL d   1     -39.155  14.661  18.544  0.00  0.00     0.120 A 
ATOM      8  N   UNL d   1     -40.476  15.590  18.893  0.00  0.00    -0.209 NA
ATOM      9  N   UNL d   1     -39.551  15.057  17.942  0.00  0.00    -0.220 NA
ATOM     10  C   UNL d   1     -40.215  15.524  18.114  0.00  0.00     0.165 A 
ATOM     11  O   UNL d   1     -40.202  14.927  21.668  0.00  0.00    -0.245 OA
ATOM     12  O   UNL d   1     -38.355  13.864  19.750  0.00  0.00    -0.266 OA
ATOM     13  C   UNL d   1     -38.882  14.001  21.307  0.00  0.00     0.107 C 
ATOM     14  C   UNL d   1     -41.002  15.724  20.461  0.00  0.00     0.105 C 
ENDROOT
BRANCH   7  15
ATOM     15  S   UNL d   1     -38.495  14.197  18.370  0.00  0.00    -0.068 SA
BRANCH  15  16
ATOM     16  C   UNL d   1     -38.353  13.954  17.593  0.00  0.00     0.031 A 
ATOM     17  C   UNL d   1     -38.590  13.241  17.256  0.00  0.00     0.006 A 
ATOM     18  C   UNL d   1     -38.340  13.215  16.472  0.00  0.00     0.001 A 
ATOM     19  C   UNL d   1     -37.940  13.929  16.323  0.00  0.00     0.001 A 
ATOM     20  C   UNL d   1     -37.950  14.384  17.020  0.00  0.00     0.006 A 
ENDBRANCH  15  16
ENDBRANCH   7  15
BRANCH  10  21
ATOM     21  C   UNL d   1     -40.613  15.921  17.507  0.00  0.00     0.039 C 
BRANCH  21  22
ATOM     22  C   UNL d   1     -41.336  15.628  17.230  0.00  0.00     0.003 C 
ATOM     23  C   UNL d   1     -41.668  15.922  16.544  0.00  0.00     0.000 C 
ENDBRANCH  21  22
ENDBRANCH  10  21
TORSDOF 4
ENDMDL
MODEL 3
REMARK VINA RESULT:      -5.9      1.605      3.364
REMARK  4 active torsions:
REMARK  status: ('A' for Active; 'I' for Inactive)
REMARK    1  A    between atoms: S_11  and  C_7 
REMARK    2  A    between atoms: C_17  and  C_10 
REMARK    3  A    between atoms: C_16  and  S_11 
REMARK    4  A    between atoms: C_20  and  C_17 
ROOT
ATOM      1  N   UNL d   1     -49.938  13.159  22.281  0.00  0.00    -0.224 N 
ATOM      2  N   UNL d   1     -49.734  12.020  23.133  0.00  0.00    -0.241 N 
ATOM      3  C   UNL d   1     -50.245  12.546  22.756  0.00  0.00     0.343 A 
ATOM      4  C   UNL d   1     -48.917  12.109  23.036  0.00  0.00     0.160 A 
ATOM      5  C   UNL d   1     -49.124  13.241  22.189  0.00  0.00     0.273 A 
ATOM      6  C   UNL d   1     -48.613  12.716  22.566  0.00  0.00     0.115 A 
ATOM      7  C   UNL d   1     -47.797  12.798  22.473  0.00  0.00     0.120 A 
ATOM      8  N   UNL d   1     -48.398  11.581  23.415  0.00  0.00    -0.209 NA
ATOM      9  N   UNL d   1     -47.285  12.276  22.848  0.00  0.00    -0.220 NA
ATOM     10  C   UNL d   1     -47.583  11.663  23.322  0.00  0.00     0.165 A 
ATOM     11  O   UNL d   1     -51.064  12.465  22.848  0.00  0.00    -0.245 OA
ATOM     12  O   UNL d   1     -48.824  13.850  21.718  0.00  0.00    -0.266 OA
ATOM     13  C   UNL d   1     -50.453  13.679  21.909  0.00  0.00     0.107 C 
ATOM     14  C   UNL d   1     -50.038  11.413  23.603  0.00  0.00     0.105 C 
ENDROOT
BRANCH   7  15
ATOM     15  S   UNL d   1     -47.497  13.407  22.003  0.00  0.00    -0.068 SA
BRANCH  15  16
ATOM     16  C   UNL d   1     -46.786  13.774  22.206  0.00  0.00     0.031 A 
ATOM     17  C   UNL d   1     -46.038  13.573  21.926  0.00  0.00     0.006 A 
ATOM     18  C   UNL d   1     -45.478  14.074  22.264  0.00  0.00     0.001 A 
ATOM     19  C   UNL d   1     -45.892  14.596  22.763  0.00  0.00     0.001 A 
ATOM     20  C   UNL d   1     -46.702  14.407  22.724  0.00  0.00     0.006 A 
ENDBRANCH  15  16
ENDBRANCH   7  15
BRANCH  10  21
ATOM     21  C   UNL d   1     -47.066  11.139  23.698  0.00  0.00     0.039 C 
BRANCH  21  22
ATOM     22  C   UNL d   1     -46.427  10.821  23.278  0.00  0.00     0.003 C 
ATOM     23  C   UNL d   1     -45.865  10.366  23.658  0.00  0.00     0.000 C 
ENDBRANCH  21  22
ENDBRANCH  10  21
TORSDOF 4
ENDMDL
MODEL 4
REMARK VINA RESULT:      -5.7      8.845     10.018
REMARK  4 active torsions:
REMARK  status: ('A' for Active; 'I' for Inactive)
REMARK    1  A    between atoms: S_11  and  C_7 
REMARK    2  A    between atoms: C_17  and  C_10 
REMARK    3  A    between atoms: C_16  and  S_11 
REMARK    4  A    between atoms: C_20  and  C_17 
ROOT
ATOM      1  N   UNL d   1     -39.751  15.229  21.116  0.00  0.00    -0.224 N 
ATOM      2  N   UNL d   1     -38.805  14.172  20.890  0.00  0.00    -0.241 N 
ATOM      3  C   UNL d   1     -39.237  14.642  21.411  0.00  0.00     0.343 A 
ATOM      4  C   UNL d   1     -38.887  14.288  20.074  0.00  0.00     0.160 A 
ATOM      5  C   UNL d   1     -39.828  15.340  20.303  0.00  0.00     0.273 A 
ATOM      6  C   UNL d   1     -39.396  14.870  19.782  0.00  0.00     0.115 A 
ATOM      7  C   UNL d   1     -39.472  14.980  18.969  0.00  0.00     0.120 A 
ATOM      8  N   UNL d   1     -38.452  13.816  19.545  0.00  0.00    -0.209 NA
ATOM      9  N   UNL d   1     -39.043  14.513  18.446  0.00  0.00    -0.220 NA
ATOM     10  C   UNL d   1     -38.529  13.927  18.732  0.00  0.00     0.165 A 
ATOM     11  O   UNL d   1     -39.161  14.532  22.228  0.00  0.00    -0.245 OA
ATOM     12  O   UNL d   1     -40.338  15.922  20.015  0.00  0.00    -0.266 OA
ATOM     13  C   UNL d   1     -40.178  15.693  21.640  0.00  0.00     0.107 C 
ATOM     14  C   UNL d   1     -38.296  13.591  21.182  0.00  0.00     0.105 C 
ENDROOT
BRANCH   7  15
ATOM     15  S   UNL d   1     -39.983  15.562  18.680  0.00  0.00    -0.068 SA
BRANCH  15  16
ATOM     16  C   UNL d   1     -40.253  15.526  17.900  0.00  0.00     0.031 A 
ATOM     17  C   UNL d   1     -40.913  15.113  17.634  0.00  0.00     0.006 A 
ATOM     18  C   UNL d   1     -40.990  15.220  16.821  0.00  0.00     0.001 A 
ATOM     19  C   UNL d   1     -40.362  15.710  16.582  0.00  0.00     0.001 A 
ATOM     20  C   UNL d   1     -39.907  15.898  17.254  0.00  0.00     0.006 A 
ENDBRANCH  15  16
ENDBRANCH   7  15
BRANCH  10  21
ATOM     21  C   UNL d   1     -38.098  13.458  18.206  0.00  0.00     0.039 C 
BRANCH  21  22
ATOM     22  C   UNL d   1     -38.318  12.669  18.084  0.00  0.00     0.003 C 
ATOM     23  C   UNL d   1     -37.977  12.229  17.486  0.00  0.00     0.000 C 
ENDBRANCH  21  22
ENDBRANCH  10  21
TORSDOF 4
ENDMDL
MODEL 5
REMARK VINA RESULT:      -5.5      1.317      2.539
REMARK  4 active torsions:
REMARK  status: ('A' for Active; 'I' for Inactive)
REMARK    1  A    between atoms: S_11  and  C_7 
REMARK    2  A    between atoms: C_17  and  C_10 
REMARK    3  A    between atoms: C_16  and  S_11 
REMARK    4  A    between atoms: C_20  and  C_17 
ROOT
ATOM      1  N   UNL d   1     -47.625  15.167  22.385  0.00  0.00    -0.224 N 
ATOM      2  N   UNL d   1     -46.659  14.179  22.779  0.00  0.00    -0.241 N 
ATOM      3  C   UNL d   1     -46.832  14.934  22.497  0.00  0.00     0.343 A 
ATOM      4  C   UNL d   1     -47.279  13.657  22.948  0.00  0.00     0.160 A 
ATOM      5  C   UNL d   1     -48.237  14.643  22.556  0.00  0.00     0.273 A 
ATOM      6  C   UNL d   1     -48.064  13.888  22.837  0.00  0.00     0.115 A 
ATOM      7  C   UNL d   1     -48.677  13.363  23.008  0.00  0.00     0.120 A 
ATOM      8  N   UNL d   1     -47.109  12.894  23.232  0.00  0.00    -0.209 NA
ATOM      9  N   UNL d   1     -48.508  12.609  23.289  0.00  0.00    -0.220 NA
ATOM     10  C   UNL d   1     -47.722  12.370  23.403  0.00  0.00     0.165 A 
ATOM     11  O   UNL d   1     -46.218  15.463  22.326  0.00  0.00    -0.245 OA
ATOM     12  O   UNL d   1     -49.021  14.877  22.443  0.00  0.00    -0.266 OA
ATOM     13  C   UNL d   1     -47.790  15.921  22.105  0.00  0.00     0.107 C 
ATOM     14  C   UNL d   1     -45.874  13.949  22.890  0.00  0.00     0.105 C 
ENDROOT
BRANCH   7  15
ATOM     15  S   UNL d   1     -49.461  13.597  22.895  0.00  0.00    -0.068 SA
BRANCH  15  16
ATOM     16  C   UNL d   1     -50.050  13.030  22.777  0.00  0.00     0.031 A 
ATOM     17  C   UNL d   1     -50.218  12.645  22.068  0.00  0.00     0.006 A 
ATOM     18  C   UNL d   1     -50.843  12.122  22.186  0.00  0.00     0.001 A 
ATOM     19  C   UNL d   1     -51.064  12.187  22.985  0.00  0.00     0.001 A 
ATOM     20  C   UNL d   1     -50.570  12.750  23.348  0.00  0.00     0.006 A 
ENDBRANCH  15  16
ENDBRANCH   7  15
BRANCH  10  21
ATOM     21  C   UNL d   1     -47.554  11.612  23.685  0.00  0.00     0.039 C 
BRANCH  21  22
ATOM     22  C   UNL d   1     -47.001  11.139  23.289  0.00  0.00     0.003 C 
ATOM     23  C   UNL d   1     -46.714  10.456  23.634  0.00  0.00     0.000 C 
ENDBRANCH  21  22
ENDBRANCH  10  21
TORSDOF 4
ENDMDL
