MODEL 1
REMARK VINA RESULT:      -1.8      0.000      0.000
REMARK  4 active torsions:
REMARK  status: ('A' for Active; 'I' for Inactive)
REMARK    1  A    between atoms: S_4  and  C_3 
REMARK    2  A    between atoms: C_12  and  S_4 
REMARK    3  A    between atoms: C_23  and  N_6 
REMARK    4  A    between atoms: C_27  and  C_23 
ROOT
ATOM      1  C   UNL d   1      33.045  21.172 -22.944  0.00  0.00     0.155 A 
ATOM      2  C   UNL d   1      32.949  20.811 -23.674  0.00  0.00     0.092 A 
ATOM      3  C   UNL d   1      32.852  19.546 -23.026  0.00  0.00     0.124 A 
ATOM      4  N   UNL d   1      33.142  21.989 -22.898  0.00  0.00    -0.210 NA
ATOM      5  N   UNL d   1      33.044  20.724 -22.258  0.00  0.00    -0.273 N 
ATOM      6  C   UNL d   1      32.947  19.906 -22.300  0.00  0.00     0.181 A 
ATOM      7  C   UNL d   1      32.950  21.261 -24.366  0.00  0.00     0.269 A 
ATOM      8  N   UNL d   1      33.047  22.077 -24.320  0.00  0.00    -0.258 N 
ATOM      9  C   UNL d   1      32.852  19.995 -23.721  0.00  0.00     0.022 A 
ATOM     10  C   UNL d   1      33.143  22.441 -23.586  0.00  0.00     0.152 A 
ATOM     11  N   UNL d   1      32.947  19.457 -21.604  0.00  0.00    -0.128 N 
ATOM     12  C   UNL d   1      33.047  22.527 -25.015  0.00  0.00     0.084 A 
ATOM     13  O   UNL d   1      32.853  20.891 -25.097  0.00  0.00    -0.266 OA
ATOM     14  C   UNL d   1      33.240  23.254 -23.547  0.00  0.00     0.038 A 
ATOM     15  C   UNL d   1      33.145  23.339 -24.958  0.00  0.00     0.019 A 
ATOM     16  C   UNL d   1      33.241  23.702 -24.224  0.00  0.00     0.005 A 
ENDROOT
BRANCH   3  17
ATOM     17  S   UNL d   1      32.754  18.722 -23.069  0.00  0.00     0.213 S 
ATOM     18  O   UNL d   1      33.241  18.634 -22.416  0.00  0.00    -0.217 OA
ATOM     19  O   UNL d   1      32.261  18.822 -23.733  0.00  0.00    -0.217 OA
BRANCH  17  20
ATOM     20  C   UNL d   1      32.651  17.903 -23.120  0.00  0.00     0.088 A 
ATOM     21  C   UNL d   1      31.978  17.599 -23.489  0.00  0.00     0.011 A 
ATOM     22  C   UNL d   1      31.874  16.789 -23.540  0.00  0.00     0.001 A 
ATOM     23  C   UNL d   1      31.202  16.484 -23.909  0.00  0.00     0.000 C 
ATOM     24  C   UNL d   1      32.443  16.274 -23.223  0.00  0.00     0.000 A 
ATOM     25  C   UNL d   1      33.115  16.578 -22.854  0.00  0.00     0.001 A 
ATOM     26  C   UNL d   1      32.335  15.453 -23.276  0.00  0.00     0.000 C 
ATOM     27  C   UNL d   1      33.223  17.399 -22.801  0.00  0.00     0.011 A 
ENDBRANCH  17  20
ENDBRANCH   3  17
BRANCH   5  28
ATOM     28  C   UNL d   1      33.141  21.096 -21.528  0.00  0.00     0.083 C 
BRANCH  28  29
ATOM     29  C   UNL d   1      32.478  21.274 -21.070  0.00  0.00     0.019 C 
ATOM     30  C   UNL d   1      32.569  21.573 -20.306  0.00  0.00     0.002 C 
ENDBRANCH  28  29
ENDBRANCH   5  28
TORSDOF 4
ENDMDL
MODEL 2
REMARK VINA RESULT:      -1.7      1.029      2.418
REMARK  4 active torsions:
REMARK  status: ('A' for Active; 'I' for Inactive)
REMARK    1  A    between atoms: S_4  and  C_3 
REMARK    2  A    between atoms: C_12  and  S_4 
REMARK    3  A    between atoms: C_23  and  N_6 
REMARK    4  A    between atoms: C_27  and  C_23 
ROOT
ATOM      1  C   UNL d   1      32.964  21.066 -22.835  0.00  0.00     0.155 A 
ATOM      2  C   UNL d   1      32.792  20.473 -22.294  0.00  0.00     0.092 A 
ATOM      3  C   UNL d   1      32.826  19.515 -23.347  0.00  0.00     0.124 A 
ATOM      4  N   UNL d   1      33.035  21.847 -22.582  0.00  0.00    -0.210 NA
ATOM      5  N   UNL d   1      33.067  20.885 -23.627  0.00  0.00    -0.273 N 
ATOM      6  C   UNL d   1      32.997  20.105 -23.885  0.00  0.00     0.181 A 
ATOM      7  C   UNL d   1      32.689  20.655 -21.495  0.00  0.00     0.269 A 
ATOM      8  N   UNL d   1      32.759  21.434 -21.243  0.00  0.00    -0.258 N 
ATOM      9  C   UNL d   1      32.722  19.693 -22.546  0.00  0.00     0.022 A 
ATOM     10  C   UNL d   1      32.932  22.031 -21.786  0.00  0.00     0.152 A 
ATOM     11  N   UNL d   1      33.101  19.926 -24.687  0.00  0.00    -0.128 N 
ATOM     12  C   UNL d   1      32.655  21.613 -20.442  0.00  0.00     0.084 A 
ATOM     13  O   UNL d   1      32.516  20.053 -20.958  0.00  0.00    -0.266 OA
ATOM     14  C   UNL d   1      33.001  22.805 -21.528  0.00  0.00     0.038 A 
ATOM     15  C   UNL d   1      32.728  22.394 -20.200  0.00  0.00     0.019 A 
ATOM     16  C   UNL d   1      32.900  22.990 -20.744  0.00  0.00     0.005 A 
ENDROOT
BRANCH   3  17
ATOM     17  S   UNL d   1      32.755  18.728 -23.606  0.00  0.00     0.213 S 
ATOM     18  O   UNL d   1      33.236  18.486 -22.988  0.00  0.00    -0.217 OA
ATOM     19  O   UNL d   1      32.267  18.985 -24.231  0.00  0.00    -0.217 OA
BRANCH  17  20
ATOM     20  C   UNL d   1      32.679  17.948 -23.871  0.00  0.00     0.088 A 
ATOM     21  C   UNL d   1      32.071  17.475 -23.576  0.00  0.00     0.011 A 
ATOM     22  C   UNL d   1      31.994  16.703 -23.837  0.00  0.00     0.001 A 
ATOM     23  C   UNL d   1      31.386  16.230 -23.543  0.00  0.00     0.000 C 
ATOM     24  C   UNL d   1      32.525  16.396 -24.395  0.00  0.00     0.000 A 
ATOM     25  C   UNL d   1      33.134  16.869 -24.690  0.00  0.00     0.001 A 
ATOM     26  C   UNL d   1      32.446  15.613 -24.658  0.00  0.00     0.000 C 
ATOM     27  C   UNL d   1      33.214  17.652 -24.427  0.00  0.00     0.011 A 
ENDBRANCH  17  20
ENDBRANCH   3  17
BRANCH   5  28
ATOM     28  C   UNL d   1      33.239  21.487 -24.164  0.00  0.00     0.083 C 
BRANCH  28  29
ATOM     29  C   UNL d   1      32.675  21.710 -24.724  0.00  0.00     0.019 C 
ATOM     30  C   UNL d   1      32.628  22.493 -24.978  0.00  0.00     0.002 C 
ENDBRANCH  28  29
ENDBRANCH   5  28
TORSDOF 4
ENDMDL
MODEL 3
REMARK VINA RESULT:      -1.3      1.332      2.883
REMARK  4 active torsions:
REMARK  status: ('A' for Active; 'I' for Inactive)
REMARK    1  A    between atoms: S_4  and  C_3 
REMARK    2  A    between atoms: C_12  and  S_4 
REMARK    3  A    between atoms: C_23  and  N_6 
REMARK    4  A    between atoms: C_27  and  C_23 
ROOT
ATOM      1  C   UNL d   1      33.219  22.076 -22.128  0.00  0.00     0.155 A 
ATOM      2  C   UNL d   1      33.209  21.401 -21.662  0.00  0.00     0.092 A 
ATOM      3  C   UNL d   1      33.219  20.598 -22.838  0.00  0.00     0.124 A 
ATOM      4  N   UNL d   1      33.220  22.821 -21.776  0.00  0.00    -0.210 NA
ATOM      5  N   UNL d   1      33.229  22.013 -22.945  0.00  0.00    -0.273 N 
ATOM      6  C   UNL d   1      33.229  21.269 -23.302  0.00  0.00     0.181 A 
ATOM      7  C   UNL d   1      33.200  21.464 -20.838  0.00  0.00     0.269 A 
ATOM      8  N   UNL d   1      33.200  22.207 -20.487  0.00  0.00    -0.258 N 
ATOM      9  C   UNL d   1      33.209  20.657 -22.013  0.00  0.00     0.022 A 
ATOM     10  C   UNL d   1      33.210  22.886 -20.956  0.00  0.00     0.152 A 
ATOM     11  N   UNL d   1      33.238  21.210 -24.127  0.00  0.00    -0.128 N 
ATOM     12  C   UNL d   1      33.190  22.267 -19.661  0.00  0.00     0.084 A 
ATOM     13  O   UNL d   1      33.190  20.780 -20.376  0.00  0.00    -0.266 OA
ATOM     14  C   UNL d   1      33.210  23.624 -20.599  0.00  0.00     0.038 A 
ATOM     15  C   UNL d   1      33.191  23.013 -19.321  0.00  0.00     0.019 A 
ATOM     16  C   UNL d   1      33.201  23.692 -19.790  0.00  0.00     0.005 A 
ENDROOT
BRANCH   3  17
ATOM     17  S   UNL d   1      33.218  19.848 -23.196  0.00  0.00     0.213 S 
ATOM     18  O   UNL d   1      33.236  20.205 -23.933  0.00  0.00    -0.217 OA
ATOM     19  O   UNL d   1      33.201  19.495 -22.441  0.00  0.00    -0.217 OA
BRANCH  17  20
ATOM     20  C   UNL d   1      33.218  19.098 -23.544  0.00  0.00     0.088 A 
ATOM     21  C   UNL d   1      33.197  18.426 -23.064  0.00  0.00     0.011 A 
ATOM     22  C   UNL d   1      33.197  17.683 -23.406  0.00  0.00     0.001 A 
ATOM     23  C   UNL d   1      33.177  17.011 -22.927  0.00  0.00     0.000 C 
ATOM     24  C   UNL d   1      33.217  17.603 -24.232  0.00  0.00     0.000 A 
ATOM     25  C   UNL d   1      33.237  18.274 -24.712  0.00  0.00     0.001 A 
ATOM     26  C   UNL d   1      33.216  16.848 -24.577  0.00  0.00     0.000 C 
ATOM     27  C   UNL d   1      33.238  19.029 -24.367  0.00  0.00     0.011 A 
ENDBRANCH  17  20
ENDBRANCH   3  17
BRANCH   5  28
ATOM     28  C   UNL d   1      33.239  22.697 -23.407  0.00  0.00     0.083 C 
BRANCH  28  29
ATOM     29  C   UNL d   1      32.542  22.959 -23.763  0.00  0.00     0.019 C 
ATOM     30  C   UNL d   1      32.529  23.673 -24.176  0.00  0.00     0.002 C 
ENDBRANCH  28  29
ENDBRANCH   5  28
TORSDOF 4
ENDMDL
