MODEL 1
REMARK VINA RESULT:      -3.0      0.000      0.000
REMARK  8 active torsions:
REMARK  status: ('A' for Active; 'I' for Inactive)
REMARK    1  A    between atoms: N_6  and  C_1 
REMARK       I    between atoms: C_2  and  N_3 
REMARK    2  A    between atoms: C_7  and  C_2 
REMARK    3  A    between atoms: N_3  and  C_4 
REMARK    4  A    between atoms: C_4  and  N_6 
REMARK    5  A    between atoms: C_10  and  C_8 
REMARK    6  A    between atoms: C_12  and  C_10 
REMARK    7  A    between atoms: O_18  and  C_12 
REMARK    8  A    between atoms: C_21  and  O_18 
ROOT
ATOM      1  C   UNL d   1      32.544  18.461 -23.899  0.00  0.00     0.277 C 
ATOM      2  S   UNL d   1      32.792  18.631 -24.668  0.00  0.00    -0.023 SA
ENDROOT
BRANCH   1   3
ATOM      3  N   UNL d   1      32.110  17.773 -23.759  0.00  0.00    -0.168 NA
ATOM      4  C   UNL d   1      31.516  17.541 -24.280  0.00  0.00     0.282 C 
ATOM      5  O   UNL d   1      31.347  17.992 -24.945  0.00  0.00    -0.265 OA
BRANCH   4   6
ATOM      6  C   UNL d   1      31.084  16.848 -24.132  0.00  0.00     0.064 A 
ATOM      7  C   UNL d   1      30.297  16.801 -24.361  0.00  0.00     0.039 A 
ATOM      8 BR   UNL d   1      29.933  17.433 -24.734  0.00  0.00    -0.049 Br
ATOM      9  C   UNL d   1      29.874  16.108 -24.211  0.00  0.00     0.007 A 
ATOM     10  C   UNL d   1      30.237  15.464 -23.833  0.00  0.00     0.001 A 
ATOM     11  C   UNL d   1      31.033  15.527 -23.608  0.00  0.00     0.000 A 
ATOM     12  C   UNL d   1      31.456  16.216 -23.756  0.00  0.00     0.005 A 
ENDBRANCH   4   6
ENDBRANCH   1   3
BRANCH   1  13
ATOM     13  N   UNL d   1      32.727  18.972 -23.284  0.00  0.00    -0.347 NA
BRANCH  13  14
ATOM     14  C   UNL d   1      32.911  19.486 -22.662  0.00  0.00     0.248 A 
ATOM     15  N   UNL d   1      32.943  20.314 -22.706  0.00  0.00    -0.210 NA
ATOM     16  C   UNL d   1      33.147  20.596 -21.957  0.00  0.00     0.096 A 
ATOM     17  C   UNL d   1      33.241  19.945 -21.451  0.00  0.00     0.059 A 
ATOM     18  S   UNL d   1      33.094  19.267 -21.891  0.00  0.00    -0.033 SA
BRANCH  16  19
ATOM     19  C   UNL d   1      33.241  21.384 -21.746  0.00  0.00     0.088 C 
BRANCH  19  20
ATOM     20  C   UNL d   1      32.741  21.736 -21.192  0.00  0.00     0.302 C 
ATOM     21  O   UNL d   1      31.970  21.932 -21.410  0.00  0.00    -0.259 OA
BRANCH  20  22
ATOM     22  O   UNL d   1      33.006  21.891 -20.431  0.00  0.00    -0.271 OA
BRANCH  22  23
ATOM     23  C   UNL d   1      32.874  22.636 -20.094  0.00  0.00     0.126 C 
ATOM     24  C   UNL d   1      32.954  22.733 -19.282  0.00  0.00     0.029 C 
ENDBRANCH  22  23
ENDBRANCH  20  22
ENDBRANCH  19  20
ENDBRANCH  16  19
ENDBRANCH  13  14
ENDBRANCH   1  13
TORSDOF 8
ENDMDL
MODEL 2
REMARK VINA RESULT:      -2.6      1.755      5.707
REMARK  8 active torsions:
REMARK  status: ('A' for Active; 'I' for Inactive)
REMARK    1  A    between atoms: N_6  and  C_1 
REMARK       I    between atoms: C_2  and  N_3 
REMARK    2  A    between atoms: C_7  and  C_2 
REMARK    3  A    between atoms: N_3  and  C_4 
REMARK    4  A    between atoms: C_4  and  N_6 
REMARK    5  A    between atoms: C_10  and  C_8 
REMARK    6  A    between atoms: C_12  and  C_10 
REMARK    7  A    between atoms: O_18  and  C_12 
REMARK    8  A    between atoms: C_21  and  O_18 
ROOT
ATOM      1  C   UNL d   1      33.115  19.921 -22.071  0.00  0.00     0.277 C 
ATOM      2  S   UNL d   1      33.241  19.619 -21.313  0.00  0.00    -0.023 SA
ENDROOT
BRANCH   1   3
ATOM      3  N   UNL d   1      33.127  20.739 -22.186  0.00  0.00    -0.168 NA
ATOM      4  C   UNL d   1      32.727  21.238 -21.667  0.00  0.00     0.282 C 
ATOM      5  O   UNL d   1      32.313  20.928 -21.029  0.00  0.00    -0.265 OA
BRANCH   4   6
ATOM      6  C   UNL d   1      32.743  22.059 -21.788  0.00  0.00     0.064 A 
ATOM      7  C   UNL d   1      32.486  22.564 -21.194  0.00  0.00     0.039 A 
ATOM      8 BR   UNL d   1      32.214  22.265 -20.482  0.00  0.00    -0.049 Br
ATOM      9  C   UNL d   1      32.505  23.380 -21.322  0.00  0.00     0.007 A 
ATOM     10  C   UNL d   1      32.780  23.689 -22.042  0.00  0.00     0.001 A 
ATOM     11  C   UNL d   1      33.036  23.165 -22.633  0.00  0.00     0.000 A 
ATOM     12  C   UNL d   1      33.018  22.353 -22.507  0.00  0.00     0.005 A 
ENDBRANCH   4   6
ENDBRANCH   1   3
BRANCH   1  13
ATOM     13  N   UNL d   1      32.982  19.413 -22.701  0.00  0.00    -0.347 NA
BRANCH  13  14
ATOM     14  C   UNL d   1      32.848  18.901 -23.337  0.00  0.00     0.248 A 
ATOM     15  N   UNL d   1      32.457  18.170 -23.303  0.00  0.00    -0.210 NA
ATOM     16  C   UNL d   1      32.453  17.853 -24.064  0.00  0.00     0.096 A 
ATOM     17  C   UNL d   1      32.840  18.385 -24.570  0.00  0.00     0.059 A 
ATOM     18  S   UNL d   1      33.080  19.026 -24.116  0.00  0.00    -0.033 SA
BRANCH  16  19
ATOM     19  C   UNL d   1      32.123  17.134 -24.287  0.00  0.00     0.088 C 
BRANCH  19  20
ATOM     20  C   UNL d   1      31.343  16.947 -24.089  0.00  0.00     0.302 C 
ATOM     21  O   UNL d   1      31.155  16.779 -23.305  0.00  0.00    -0.259 OA
BRANCH  20  22
ATOM     22  O   UNL d   1      30.760  16.929 -24.666  0.00  0.00    -0.271 OA
BRANCH  22  23
ATOM     23  C   UNL d   1      30.063  16.502 -24.531  0.00  0.00     0.126 C 
ATOM     24  C   UNL d   1      29.466  16.514 -25.097  0.00  0.00     0.029 C 
ENDBRANCH  22  23
ENDBRANCH  20  22
ENDBRANCH  19  20
ENDBRANCH  16  19
ENDBRANCH  13  14
ENDBRANCH   1  13
TORSDOF 8
ENDMDL
MODEL 3
REMARK VINA RESULT:      -0.4      2.618      5.360
REMARK  8 active torsions:
REMARK  status: ('A' for Active; 'I' for Inactive)
REMARK    1  A    between atoms: N_6  and  C_1 
REMARK       I    between atoms: C_2  and  N_3 
REMARK    2  A    between atoms: C_7  and  C_2 
REMARK    3  A    between atoms: N_3  and  C_4 
REMARK    4  A    between atoms: C_4  and  N_6 
REMARK    5  A    between atoms: C_10  and  C_8 
REMARK    6  A    between atoms: C_12  and  C_10 
REMARK    7  A    between atoms: O_18  and  C_12 
REMARK    8  A    between atoms: C_21  and  O_18 
ROOT
ATOM      1  C   UNL d   1      32.303  16.760 -23.925  0.00  0.00     0.277 C 
ATOM      2  S   UNL d   1      32.922  16.313 -23.610  0.00  0.00    -0.023 SA
ENDROOT
BRANCH   1   3
ATOM      3  N   UNL d   1      32.440  17.548 -24.133  0.00  0.00    -0.168 NA
ATOM      4  C   UNL d   1      32.840  18.050 -23.618  0.00  0.00     0.282 C 
ATOM      5  O   UNL d   1      33.108  17.775 -22.892  0.00  0.00    -0.265 OA
BRANCH   4   6
ATOM      6  C   UNL d   1      32.974  18.841 -23.833  0.00  0.00     0.064 A 
ATOM      7  C   UNL d   1      32.973  19.426 -23.257  0.00  0.00     0.039 A 
ATOM      8 BR   UNL d   1      32.842  19.236 -22.471  0.00  0.00    -0.049 Br
ATOM      9  C   UNL d   1      33.107  20.210 -23.478  0.00  0.00     0.007 A 
ATOM     10  C   UNL d   1      33.241  20.408 -24.273  0.00  0.00     0.001 A 
ATOM     11  C   UNL d   1      33.238  19.806 -24.844  0.00  0.00     0.000 A 
ATOM     12  C   UNL d   1      33.105  19.024 -24.625  0.00  0.00     0.005 A 
ENDBRANCH   4   6
ENDBRANCH   1   3
BRANCH   1  13
ATOM     13  N   UNL d   1      31.562  16.423 -24.030  0.00  0.00    -0.347 NA
BRANCH  13  14
ATOM     14  C   UNL d   1      30.815  16.085 -24.137  0.00  0.00     0.248 A 
ATOM     15  N   UNL d   1      30.226  16.007 -23.557  0.00  0.00    -0.210 NA
ATOM     16  C   UNL d   1      29.576  15.640 -23.908  0.00  0.00     0.096 A 
ATOM     17  C   UNL d   1      29.761  15.491 -24.704  0.00  0.00     0.059 A 
ATOM     18  S   UNL d   1      30.523  15.767 -24.836  0.00  0.00    -0.033 SA
BRANCH  16  19
ATOM     19  C   UNL d   1      28.867  15.454 -23.537  0.00  0.00     0.088 C 
BRANCH  19  20
ATOM     20  C   UNL d   1      28.224  15.970 -23.570  0.00  0.00     0.302 C 
ATOM     21  O   UNL d   1      27.610  15.816 -24.098  0.00  0.00    -0.259 OA
BRANCH  20  22
ATOM     22  O   UNL d   1      28.194  16.630 -23.084  0.00  0.00    -0.271 OA
BRANCH  22  23
ATOM     23  C   UNL d   1      27.627  17.217 -23.223  0.00  0.00     0.126 C 
ATOM     24  C   UNL d   1      27.820  18.005 -23.090  0.00  0.00     0.029 C 
ENDBRANCH  22  23
ENDBRANCH  20  22
ENDBRANCH  19  20
ENDBRANCH  16  19
ENDBRANCH  13  14
ENDBRANCH   1  13
TORSDOF 8
ENDMDL
MODEL 4
REMARK VINA RESULT:      -0.2      2.063      5.476
REMARK  8 active torsions:
REMARK  status: ('A' for Active; 'I' for Inactive)
REMARK    1  A    between atoms: N_6  and  C_1 
REMARK       I    between atoms: C_2  and  N_3 
REMARK    2  A    between atoms: C_7  and  C_2 
REMARK    3  A    between atoms: N_3  and  C_4 
REMARK    4  A    between atoms: C_4  and  N_6 
REMARK    5  A    between atoms: C_10  and  C_8 
REMARK    6  A    between atoms: C_12  and  C_10 
REMARK    7  A    between atoms: O_18  and  C_12 
REMARK    8  A    between atoms: C_21  and  O_18 
ROOT
ATOM      1  C   UNL d   1      32.725  17.798 -23.393  0.00  0.00     0.277 C 
ATOM      2  S   UNL d   1      33.235  17.428 -22.859  0.00  0.00    -0.023 SA
ENDROOT
BRANCH   1   3
ATOM      3  N   UNL d   1      32.815  18.605 -23.543  0.00  0.00    -0.168 NA
ATOM      4  C   UNL d   1      32.967  19.129 -22.926  0.00  0.00     0.282 C 
ATOM      5  O   UNL d   1      33.030  18.855 -22.155  0.00  0.00    -0.265 OA
BRANCH   4   6
ATOM      6  C   UNL d   1      33.057  19.939 -23.085  0.00  0.00     0.064 A 
ATOM      7  C   UNL d   1      33.051  20.478 -22.466  0.00  0.00     0.039 A 
ATOM      8 BR   UNL d   1      32.957  20.225 -21.693  0.00  0.00    -0.049 Br
ATOM      9  C   UNL d   1      33.140  21.283 -22.631  0.00  0.00     0.007 A 
ATOM     10  C   UNL d   1      33.236  21.546 -23.413  0.00  0.00     0.001 A 
ATOM     11  C   UNL d   1      33.239  20.988 -24.027  0.00  0.00     0.000 A 
ATOM     12  C   UNL d   1      33.150  20.187 -23.865  0.00  0.00     0.005 A 
ENDBRANCH   4   6
ENDBRANCH   1   3
BRANCH   1  13
ATOM     13  N   UNL d   1      32.136  17.367 -23.768  0.00  0.00    -0.347 NA
BRANCH  13  14
ATOM     14  C   UNL d   1      31.542  16.934 -24.147  0.00  0.00     0.248 A 
ATOM     15  N   UNL d   1      30.834  16.670 -23.803  0.00  0.00    -0.210 NA
ATOM     16  C   UNL d   1      30.411  16.263 -24.383  0.00  0.00     0.096 A 
ATOM     17  C   UNL d   1      30.855  16.275 -25.085  0.00  0.00     0.059 A 
ATOM     18  S   UNL d   1      31.547  16.688 -24.932  0.00  0.00    -0.033 SA
BRANCH  16  19
ATOM     19  C   UNL d   1      29.677  15.907 -24.286  0.00  0.00     0.088 C 
BRANCH  19  20
ATOM     20  C   UNL d   1      29.146  16.181 -23.716  0.00  0.00     0.302 C 
ATOM     21  O   UNL d   1      29.255  16.930 -23.390  0.00  0.00    -0.259 OA
BRANCH  20  22
ATOM     22  O   UNL d   1      28.516  15.714 -23.475  0.00  0.00    -0.271 OA
BRANCH  22  23
ATOM     23  C   UNL d   1      27.977  16.008 -22.920  0.00  0.00     0.126 C 
ATOM     24  C   UNL d   1      27.289  15.586 -22.761  0.00  0.00     0.029 C 
ENDBRANCH  22  23
ENDBRANCH  20  22
ENDBRANCH  19  20
ENDBRANCH  16  19
ENDBRANCH  13  14
ENDBRANCH   1  13
TORSDOF 8
ENDMDL
