MODEL 1
REMARK VINA RESULT:      -3.3      0.000      0.000
REMARK  1 active torsions:
REMARK  status: ('A' for Active; 'I' for Inactive)
REMARK    1  A    between atoms: N_11  and  C_7 
ROOT
ATOM      1  C   UNL d   1      32.456  21.582 -21.353  0.00  0.00     0.201 A 
ATOM      2  C   UNL d   1      32.845  21.490 -20.628  0.00  0.00     0.141 A 
ATOM      3  N   UNL d   1      32.461  20.970 -21.904  0.00  0.00    -0.036 NA
ATOM      4  C   UNL d   1      32.751  22.182 -20.191  0.00  0.00     0.040 A 
ATOM      5  N   UNL d   1      32.121  22.336 -21.365  0.00  0.00    -0.225 NA
ATOM      6  N   UNL d   1      33.241  20.780 -20.451  0.00  0.00    -0.129 NA
ATOM      7  C   UNL d   1      32.854  20.260 -21.733  0.00  0.00     0.788 A 
ATOM      8  C   UNL d   1      32.304  22.705 -20.646  0.00  0.00     0.085 A 
ATOM      9  N   UNL d   1      33.240  20.169 -21.010  0.00  0.00     0.048 NA
ATOM     10  C   UNL d   1      33.011  22.406 -19.444  0.00  0.00     0.003 A 
ATOM     11  C   UNL d   1      32.113  23.455 -20.357  0.00  0.00     0.019 A 
ATOM     12  C   UNL d   1      32.825  23.151 -19.152  0.00  0.00     0.000 A 
ATOM     13  C   UNL d   1      32.374  23.678 -19.611  0.00  0.00     0.002 A 
ATOM     14  C   UNL d   1      33.086  23.383 -18.395  0.00  0.00     0.000 C 
ENDROOT
BRANCH   7  15
ATOM     15  N   UNL d   1      32.854  19.649 -22.291  0.00  0.00     0.069 NA
ATOM     16  N   UNL d   1      33.211  18.911 -22.206  0.00  0.00    -0.006 N 
ENDBRANCH   7  15
TORSDOF 1
ENDMDL
MODEL 2
REMARK VINA RESULT:      -3.0      5.512      6.579
REMARK  1 active torsions:
REMARK  status: ('A' for Active; 'I' for Inactive)
REMARK    1  A    between atoms: N_11  and  C_7 
ROOT
ATOM      1  C   UNL d   1      30.670  16.191 -23.715  0.00  0.00     0.201 A 
ATOM      2  C   UNL d   1      30.689  16.920 -24.106  0.00  0.00     0.141 A 
ATOM      3  N   UNL d   1      29.979  15.744 -23.711  0.00  0.00    -0.036 NA
ATOM      4  C   UNL d   1      31.443  17.243 -24.021  0.00  0.00     0.040 A 
ATOM      5  N   UNL d   1      31.416  16.062 -23.387  0.00  0.00    -0.225 NA
ATOM      6  N   UNL d   1      30.012  17.206 -24.495  0.00  0.00    -0.129 NA
ATOM      7  C   UNL d   1      29.300  16.023 -24.097  0.00  0.00     0.788 A 
ATOM      8  C   UNL d   1      31.892  16.713 -23.578  0.00  0.00     0.085 A 
ATOM      9  N   UNL d   1      29.320  16.750 -24.486  0.00  0.00     0.048 NA
ATOM     10  C   UNL d   1      31.778  17.945 -24.287  0.00  0.00     0.003 A 
ATOM     11  C   UNL d   1      32.681  16.880 -23.396  0.00  0.00     0.019 A 
ATOM     12  C   UNL d   1      32.562  18.117 -24.110  0.00  0.00     0.000 A 
ATOM     13  C   UNL d   1      33.016  17.582 -23.662  0.00  0.00     0.002 A 
ATOM     14  C   UNL d   1      32.907  18.827 -24.377  0.00  0.00     0.000 C 
ENDROOT
BRANCH   7  15
ATOM     15  N   UNL d   1      28.610  15.568 -24.088  0.00  0.00     0.069 NA
ATOM     16  N   UNL d   1      27.938  15.711 -23.632  0.00  0.00    -0.006 N 
ENDBRANCH   7  15
TORSDOF 1
ENDMDL
MODEL 3
REMARK VINA RESULT:      -2.9      1.170      2.034
REMARK  1 active torsions:
REMARK  status: ('A' for Active; 'I' for Inactive)
REMARK    1  A    between atoms: N_11  and  C_7 
ROOT
ATOM      1  C   UNL d   1      32.961  20.204 -21.603  0.00  0.00     0.201 A 
ATOM      2  C   UNL d   1      33.035  20.776 -22.196  0.00  0.00     0.141 A 
ATOM      3  N   UNL d   1      33.026  19.405 -21.791  0.00  0.00    -0.036 NA
ATOM      4  C   UNL d   1      32.947  21.521 -21.853  0.00  0.00     0.040 A 
ATOM      5  N   UNL d   1      32.826  20.597 -20.890  0.00  0.00    -0.225 NA
ATOM      6  N   UNL d   1      33.176  20.549 -22.983  0.00  0.00    -0.129 NA
ATOM      7  C   UNL d   1      33.167  19.172 -22.574  0.00  0.00     0.788 A 
ATOM      8  C   UNL d   1      32.817  21.410 -21.047  0.00  0.00     0.085 A 
ATOM      9  N   UNL d   1      33.240  19.744 -23.165  0.00  0.00     0.048 NA
ATOM     10  C   UNL d   1      32.966  22.281 -22.166  0.00  0.00     0.003 A 
ATOM     11  C   UNL d   1      32.706  22.058 -20.546  0.00  0.00     0.019 A 
ATOM     12  C   UNL d   1      32.857  22.930 -21.674  0.00  0.00     0.000 A 
ATOM     13  C   UNL d   1      32.726  22.818 -20.860  0.00  0.00     0.002 A 
ATOM     14  C   UNL d   1      32.876  23.702 -21.986  0.00  0.00     0.000 C 
ENDROOT
BRANCH   7  15
ATOM     15  N   UNL d   1      33.231  18.368 -22.755  0.00  0.00     0.069 NA
ATOM     16  N   UNL d   1      32.665  17.908 -23.139  0.00  0.00    -0.006 N 
ENDBRANCH   7  15
TORSDOF 1
ENDMDL
MODEL 4
REMARK VINA RESULT:      -2.8      2.061      3.565
REMARK  1 active torsions:
REMARK  status: ('A' for Active; 'I' for Inactive)
REMARK    1  A    between atoms: N_11  and  C_7 
ROOT
ATOM      1  C   UNL d   1      33.124  22.327 -19.496  0.00  0.00     0.201 A 
ATOM      2  C   UNL d   1      32.871  23.019 -19.873  0.00  0.00     0.141 A 
ATOM      3  N   UNL d   1      33.213  22.313 -18.678  0.00  0.00    -0.036 NA
ATOM      4  C   UNL d   1      32.831  22.876 -20.684  0.00  0.00     0.040 A 
ATOM      5  N   UNL d   1      33.241  21.753 -20.077  0.00  0.00    -0.225 NA
ATOM      6  N   UNL d   1      32.706  23.702 -19.429  0.00  0.00    -0.129 NA
ATOM      7  C   UNL d   1      33.050  22.991 -18.230  0.00  0.00     0.788 A 
ATOM      8  C   UNL d   1      33.060  22.094 -20.810  0.00  0.00     0.085 A 
ATOM      9  N   UNL d   1      32.798  23.680 -18.607  0.00  0.00     0.048 NA
ATOM     10  C   UNL d   1      32.619  23.351 -21.321  0.00  0.00     0.003 A 
ATOM     11  C   UNL d   1      33.078  21.780 -21.574  0.00  0.00     0.019 A 
ATOM     12  C   UNL d   1      32.635  23.044 -22.083  0.00  0.00     0.000 A 
ATOM     13  C   UNL d   1      32.865  22.255 -22.210  0.00  0.00     0.002 A 
ATOM     14  C   UNL d   1      32.420  23.520 -22.732  0.00  0.00     0.000 C 
ENDROOT
BRANCH   7  15
ATOM     15  N   UNL d   1      33.142  22.968 -17.408  0.00  0.00     0.069 NA
ATOM     16  N   UNL d   1      32.665  23.349 -16.854  0.00  0.00    -0.006 N 
ENDBRANCH   7  15
TORSDOF 1
ENDMDL
MODEL 5
REMARK VINA RESULT:      -2.8      5.736      6.647
REMARK  1 active torsions:
REMARK  status: ('A' for Active; 'I' for Inactive)
REMARK    1  A    between atoms: N_11  and  C_7 
ROOT
ATOM      1  C   UNL d   1      31.006  17.691 -24.840  0.00  0.00     0.201 A 
ATOM      2  C   UNL d   1      31.071  17.127 -24.238  0.00  0.00     0.141 A 
ATOM      3  N   UNL d   1      31.674  18.099 -25.096  0.00  0.00    -0.036 NA
ATOM      4  C   UNL d   1      30.324  16.809 -24.096  0.00  0.00     0.040 A 
ATOM      5  N   UNL d   1      30.215  17.721 -25.072  0.00  0.00    -0.225 NA
ATOM      6  N   UNL d   1      31.809  16.970 -23.888  0.00  0.00    -0.129 NA
ATOM      7  C   UNL d   1      32.412  17.947 -24.751  0.00  0.00     0.788 A 
ATOM      8  C   UNL d   1      29.795  17.175 -24.610  0.00  0.00     0.085 A 
ATOM      9  N   UNL d   1      32.476  17.385 -24.151  0.00  0.00     0.048 NA
ATOM     10  C   UNL d   1      30.057  16.237 -23.569  0.00  0.00     0.003 A 
ATOM     11  C   UNL d   1      28.994  16.973 -24.603  0.00  0.00     0.019 A 
ATOM     12  C   UNL d   1      29.261  16.032 -23.557  0.00  0.00     0.000 A 
ATOM     13  C   UNL d   1      28.727  16.402 -24.076  0.00  0.00     0.002 A 
ATOM     14  C   UNL d   1      28.984  15.453 -23.025  0.00  0.00     0.000 C 
ENDROOT
BRANCH   7  15
ATOM     15  N   UNL d   1      33.078  18.361 -25.014  0.00  0.00     0.069 NA
ATOM     16  N   UNL d   1      33.175  19.180 -25.012  0.00  0.00    -0.006 N 
ENDBRANCH   7  15
TORSDOF 1
ENDMDL
MODEL 6
REMARK VINA RESULT:      -2.7      1.739      4.159
REMARK  1 active torsions:
REMARK  status: ('A' for Active; 'I' for Inactive)
REMARK    1  A    between atoms: N_11  and  C_7 
ROOT
ATOM      1  C   UNL d   1      33.236  20.713 -22.345  0.00  0.00     0.201 A 
ATOM      2  C   UNL d   1      33.237  19.979 -21.964  0.00  0.00     0.141 A 
ATOM      3  N   UNL d   1      33.235  21.407 -21.901  0.00  0.00    -0.036 NA
ATOM      4  C   UNL d   1      33.238  19.387 -22.538  0.00  0.00     0.040 A 
ATOM      5  N   UNL d   1      33.238  20.575 -23.158  0.00  0.00    -0.225 NA
ATOM      6  N   UNL d   1      33.236  19.936 -21.133  0.00  0.00    -0.129 NA
ATOM      7  C   UNL d   1      33.234  21.371 -21.072  0.00  0.00     0.788 A 
ATOM      8  C   UNL d   1      33.239  19.755 -23.275  0.00  0.00     0.085 A 
ATOM      9  N   UNL d   1      33.234  20.638 -20.694  0.00  0.00     0.048 NA
ATOM     10  C   UNL d   1      33.239  18.566 -22.488  0.00  0.00     0.003 A 
ATOM     11  C   UNL d   1      33.240  19.306 -23.969  0.00  0.00     0.019 A 
ATOM     12  C   UNL d   1      33.240  18.114 -23.174  0.00  0.00     0.000 A 
ATOM     13  C   UNL d   1      33.241  18.486 -23.918  0.00  0.00     0.002 A 
ATOM     14  C   UNL d   1      33.241  17.282 -23.129  0.00  0.00     0.000 C 
ENDROOT
BRANCH   7  15
ATOM     15  N   UNL d   1      33.233  22.072 -20.634  0.00  0.00     0.069 NA
ATOM     16  N   UNL d   1      32.582  22.410 -20.256  0.00  0.00    -0.006 N 
ENDBRANCH   7  15
TORSDOF 1
ENDMDL
MODEL 7
REMARK VINA RESULT:      -2.7      1.480      4.016
REMARK  1 active torsions:
REMARK  status: ('A' for Active; 'I' for Inactive)
REMARK    1  A    between atoms: N_11  and  C_7 
ROOT
ATOM      1  C   UNL d   1      33.211  20.697 -21.296  0.00  0.00     0.201 A 
ATOM      2  C   UNL d   1      33.219  20.943 -22.086  0.00  0.00     0.141 A 
ATOM      3  N   UNL d   1      33.206  21.256 -20.691  0.00  0.00    -0.036 NA
ATOM      4  C   UNL d   1      33.222  20.274 -22.568  0.00  0.00     0.040 A 
ATOM      5  N   UNL d   1      33.209  19.872 -21.289  0.00  0.00    -0.225 NA
ATOM      6  N   UNL d   1      33.222  21.753 -22.274  0.00  0.00    -0.129 NA
ATOM      7  C   UNL d   1      33.209  22.065 -20.872  0.00  0.00     0.788 A 
ATOM      8  C   UNL d   1      33.216  19.613 -22.076  0.00  0.00     0.085 A 
ATOM      9  N   UNL d   1      33.217  22.308 -21.660  0.00  0.00     0.048 NA
ATOM     10  C   UNL d   1      33.230  20.179 -23.385  0.00  0.00     0.003 A 
ATOM     11  C   UNL d   1      33.218  18.851 -22.396  0.00  0.00     0.019 A 
ATOM     12  C   UNL d   1      33.232  19.424 -23.709  0.00  0.00     0.000 A 
ATOM     13  C   UNL d   1      33.226  18.756 -23.212  0.00  0.00     0.002 A 
ATOM     14  C   UNL d   1      33.240  19.322 -24.536  0.00  0.00     0.000 C 
ENDROOT
BRANCH   7  15
ATOM     15  N   UNL d   1      33.204  22.620 -20.259  0.00  0.00     0.069 NA
ATOM     16  N   UNL d   1      32.543  23.011 -19.961  0.00  0.00    -0.006 N 
ENDBRANCH   7  15
TORSDOF 1
ENDMDL
MODEL 8
REMARK VINA RESULT:      -2.5      1.801      2.892
REMARK  1 active torsions:
REMARK  status: ('A' for Active; 'I' for Inactive)
REMARK    1  A    between atoms: N_11  and  C_7 
ROOT
ATOM      1  C   UNL d   1      33.232  19.162 -22.343  0.00  0.00     0.201 A 
ATOM      2  C   UNL d   1      33.229  19.888 -22.741  0.00  0.00     0.141 A 
ATOM      3  N   UNL d   1      33.229  18.459 -22.771  0.00  0.00    -0.036 NA
ATOM      4  C   UNL d   1      33.232  20.493 -22.180  0.00  0.00     0.040 A 
ATOM      5  N   UNL d   1      33.236  19.319 -21.533  0.00  0.00    -0.225 NA
ATOM      6  N   UNL d   1      33.224  19.912 -23.572  0.00  0.00    -0.129 NA
ATOM      7  C   UNL d   1      33.224  18.475 -23.600  0.00  0.00     0.788 A 
ATOM      8  C   UNL d   1      33.237  20.142 -21.435  0.00  0.00     0.085 A 
ATOM      9  N   UNL d   1      33.222  19.200 -23.995  0.00  0.00     0.048 NA
ATOM     10  C   UNL d   1      33.232  21.313 -22.250  0.00  0.00     0.003 A 
ATOM     11  C   UNL d   1      33.241  20.607 -20.752  0.00  0.00     0.019 A 
ATOM     12  C   UNL d   1      33.236  21.780 -21.574  0.00  0.00     0.000 A 
ATOM     13  C   UNL d   1      33.240  21.425 -20.821  0.00  0.00     0.002 A 
ATOM     14  C   UNL d   1      33.235  22.611 -21.638  0.00  0.00     0.000 C 
ENDROOT
BRANCH   7  15
ATOM     15  N   UNL d   1      33.222  17.765 -24.022  0.00  0.00     0.069 NA
ATOM     16  N   UNL d   1      32.558  17.376 -24.319  0.00  0.00    -0.006 N 
ENDBRANCH   7  15
TORSDOF 1
ENDMDL
MODEL 9
REMARK VINA RESULT:      -2.4      2.959      5.370
REMARK  1 active torsions:
REMARK  status: ('A' for Active; 'I' for Inactive)
REMARK    1  A    between atoms: N_11  and  C_7 
ROOT
ATOM      1  C   UNL d   1      32.724  19.084 -23.462  0.00  0.00     0.201 A 
ATOM      2  C   UNL d   1      32.853  18.421 -22.984  0.00  0.00     0.141 A 
ATOM      3  N   UNL d   1      32.854  19.840 -23.162  0.00  0.00    -0.036 NA
ATOM      4  C   UNL d   1      32.681  17.745 -23.423  0.00  0.00     0.040 A 
ATOM      5  N   UNL d   1      32.471  18.816 -24.200  0.00  0.00    -0.225 NA
ATOM      6  N   UNL d   1      33.113  18.513 -22.199  0.00  0.00    -0.129 NA
ATOM      7  C   UNL d   1      33.113  19.938 -22.381  0.00  0.00     0.788 A 
ATOM      8  C   UNL d   1      32.446  17.988 -24.174  0.00  0.00     0.085 A 
ATOM      9  N   UNL d   1      33.241  19.276 -21.905  0.00  0.00     0.048 NA
ATOM     10  C   UNL d   1      32.708  16.943 -23.239  0.00  0.00     0.003 A 
ATOM     11  C   UNL d   1      32.235  17.433 -24.749  0.00  0.00     0.019 A 
ATOM     12  C   UNL d   1      32.499  16.386 -23.807  0.00  0.00     0.000 A 
ATOM     13  C   UNL d   1      32.261  16.633 -24.565  0.00  0.00     0.002 A 
ATOM     14  C   UNL d   1      32.524  15.574 -23.626  0.00  0.00     0.000 C 
ENDROOT
BRANCH   7  15
ATOM     15  N   UNL d   1      33.241  20.700 -22.086  0.00  0.00     0.069 NA
ATOM     16  N   UNL d   1      32.865  21.042 -21.437  0.00  0.00    -0.006 N 
ENDBRANCH   7  15
TORSDOF 1
ENDMDL
