MODEL 1
REMARK VINA RESULT:      40.8      0.000      0.000
REMARK  6 active torsions:
REMARK  status: ('A' for Active; 'I' for Inactive)
REMARK    1  A    between atoms: C_8  and  N_1 
REMARK    2  A    between atoms: C_6  and  C_3 
REMARK    3  A    between atoms: C_7  and  C_6 
REMARK       I    between atoms: N_11  and  C_7 
REMARK    4  A    between atoms: C_9  and  C_8 
REMARK       I    between atoms: N_12  and  C_9 
REMARK    5  A    between atoms: C_17  and  N_11 
REMARK    6  A    between atoms: C_16  and  N_12 
ROOT
ATOM      1  N   UNL d   1      44.757 -15.250  44.770  0.00  0.00    -0.230 N 
ATOM      2  C   UNL d   1      44.151 -15.788  44.602  0.00  0.00     0.299 A 
ATOM      3  C   UNL d   1      45.301 -16.457  44.639  0.00  0.00     0.095 A 
ATOM      4  C   UNL d   1      45.469 -15.664  44.793  0.00  0.00     0.274 A 
ATOM      5  S   UNL d   1      44.497 -16.531  44.523  0.00  0.00    -0.022 SA
ATOM      6  O   UNL d   1      43.351 -15.604  44.529  0.00  0.00    -0.259 OA
ATOM      7  O   UNL d   1      46.216 -15.341  44.944  0.00  0.00    -0.266 OA
ENDROOT
BRANCH   1   8
ATOM      8  C   UNL d   1      44.663 -14.437  44.894  0.00  0.00     0.149 C 
BRANCH   8   9
ATOM      9  C   UNL d   1      44.814 -13.908  44.279  0.00  0.00     0.297 C 
ATOM     10  N   UNL d   1      44.967 -14.191  43.526  0.00  0.00    -0.207 NA
ATOM     11  O   UNL d   1      44.811 -13.093  44.425  0.00  0.00    -0.264 OA
BRANCH  10  12
ATOM     12  C   UNL d   1      45.119 -13.661  42.907  0.00  0.00     0.085 A 
ATOM     13  C   UNL d   1      44.578 -13.066  42.739  0.00  0.00     0.019 A 
ATOM     14  C   UNL d   1      44.728 -12.538  42.125  0.00  0.00     0.002 A 
ATOM     15  C   UNL d   1      45.422 -12.610  41.680  0.00  0.00     0.000 A 
ATOM     16  C   UNL d   1      45.965 -13.215  41.855  0.00  0.00     0.002 A 
ATOM     17  C   UNL d   1      45.575 -12.086  41.066  0.00  0.00     0.000 C 
ATOM     18  C   UNL d   1      45.811 -13.739  42.469  0.00  0.00     0.019 A 
ENDBRANCH  10  12
ENDBRANCH   8   9
ENDBRANCH   1   8
BRANCH   3  19
ATOM     19  C   UNL d   1      45.860 -17.064  44.610  0.00  0.00     0.074 C 
BRANCH  19  20
ATOM     20  C   UNL d   1      45.947 -17.507  43.923  0.00  0.00     0.280 C 
ATOM     21  N   UNL d   1      46.219 -18.279  43.956  0.00  0.00    -0.208 NA
ATOM     22  O   UNL d   1      45.760 -17.175  43.188  0.00  0.00    -0.265 OA
BRANCH  21  23
ATOM     23  C   UNL d   1      46.305 -18.718  43.268  0.00  0.00     0.085 A 
ATOM     24  C   UNL d   1      46.555 -19.500  43.310  0.00  0.00     0.020 A 
ATOM     25  C   UNL d   1      46.641 -19.940  42.617  0.00  0.00     0.013 A 
ATOM     26  C   UNL d   1      46.478 -19.601  41.890  0.00  0.00     0.058 A 
ATOM     27  C   UNL d   1      46.226 -18.811  41.845  0.00  0.00     0.013 A 
ATOM     28 CL   UNL d   1      46.564 -20.040  41.196  0.00  0.00    -0.082 Cl
ATOM     29  C   UNL d   1      46.140 -18.371  42.539  0.00  0.00     0.020 A 
ENDBRANCH  21  23
ENDBRANCH  19  20
ENDBRANCH   3  19
TORSDOF 6
ENDMDL
MODEL 2
REMARK VINA RESULT:      42.0      1.374      2.353
REMARK  6 active torsions:
REMARK  status: ('A' for Active; 'I' for Inactive)
REMARK    1  A    between atoms: C_8  and  N_1 
REMARK    2  A    between atoms: C_6  and  C_3 
REMARK    3  A    between atoms: C_7  and  C_6 
REMARK       I    between atoms: N_11  and  C_7 
REMARK    4  A    between atoms: C_9  and  C_8 
REMARK       I    between atoms: N_12  and  C_9 
REMARK    5  A    between atoms: C_17  and  N_11 
REMARK    6  A    between atoms: C_16  and  N_12 
ROOT
ATOM      1  N   UNL d   1      45.131 -13.303  43.877  0.00  0.00    -0.230 N 
ATOM      2  C   UNL d   1      45.924 -13.332  44.113  0.00  0.00     0.299 A 
ATOM      3  C   UNL d   1      45.317 -14.426  44.567  0.00  0.00     0.095 A 
ATOM      4  C   UNL d   1      44.755 -13.980  44.159  0.00  0.00     0.274 A 
ATOM      5  S   UNL d   1      46.029 -14.029  44.538  0.00  0.00    -0.022 SA
ATOM      6  O   UNL d   1      46.497 -12.762  43.947  0.00  0.00    -0.259 OA
ATOM      7  O   UNL d   1      43.958 -14.176  44.050  0.00  0.00    -0.266 OA
ENDROOT
BRANCH   1   8
ATOM      8  C   UNL d   1      44.778 -12.698  43.436  0.00  0.00     0.149 C 
BRANCH   8   9
ATOM      9  C   UNL d   1      44.918 -12.647  42.625  0.00  0.00     0.297 C 
ATOM     10  N   UNL d   1      44.351 -12.319  42.134  0.00  0.00    -0.207 NA
ATOM     11  O   UNL d   1      45.630 -12.929  42.309  0.00  0.00    -0.264 OA
BRANCH  10  12
ATOM     12  C   UNL d   1      44.489 -12.267  41.318  0.00  0.00     0.085 A 
ATOM     13  C   UNL d   1      43.860 -12.135  40.806  0.00  0.00     0.019 A 
ATOM     14  C   UNL d   1      43.996 -12.083  39.996  0.00  0.00     0.002 A 
ATOM     15  C   UNL d   1      44.765 -12.165  39.701  0.00  0.00     0.000 A 
ATOM     16  C   UNL d   1      45.397 -12.299  40.224  0.00  0.00     0.002 A 
ATOM     17  C   UNL d   1      44.905 -12.114  38.893  0.00  0.00     0.000 C 
ATOM     18  C   UNL d   1      45.256 -12.350  41.032  0.00  0.00     0.019 A 
ENDBRANCH  10  12
ENDBRANCH   8   9
ENDBRANCH   1   8
BRANCH   3  19
ATOM     19  C   UNL d   1      45.172 -15.149  44.938  0.00  0.00     0.074 C 
BRANCH  19  20
ATOM     20  C   UNL d   1      45.543 -15.830  44.666  0.00  0.00     0.280 C 
ATOM     21  N   UNL d   1      45.147 -16.352  44.175  0.00  0.00    -0.208 NA
ATOM     22  O   UNL d   1      46.323 -15.994  44.888  0.00  0.00    -0.265 OA
BRANCH  21  23
ATOM     23  C   UNL d   1      45.521 -17.032  43.905  0.00  0.00     0.085 A 
ATOM     24  C   UNL d   1      45.794 -17.069  43.131  0.00  0.00     0.020 A 
ATOM     25  C   UNL d   1      46.169 -17.754  42.861  0.00  0.00     0.013 A 
ATOM     26  C   UNL d   1      46.270 -18.393  43.362  0.00  0.00     0.058 A 
ATOM     27  C   UNL d   1      45.995 -18.358  44.145  0.00  0.00     0.013 A 
ATOM     28 CL   UNL d   1      46.645 -19.078  43.093  0.00  0.00    -0.082 Cl
ATOM     29  C   UNL d   1      45.620 -17.673  44.414  0.00  0.00     0.020 A 
ENDBRANCH  21  23
ENDBRANCH  19  20
ENDBRANCH   3  19
TORSDOF 6
ENDMDL
