MODEL 1
REMARK VINA RESULT:      -5.1      0.000      0.000
REMARK  3 active torsions:
REMARK  status: ('A' for Active; 'I' for Inactive)
REMARK    1  A    between atoms: N_9  and  C_4 
REMARK       I    between atoms: C_7  and  N_10 
REMARK    2  A    between atoms: C_8  and  C_7 
REMARK    3  A    between atoms: N_10  and  N_9 
ROOT
ATOM      1  C   UNL d   1     -41.751-122.125 -52.534  0.00  0.00     0.297 C 
ATOM      2  N   UNL d   1     -42.019-122.495 -51.849  0.00  0.00    -0.104 NA
ATOM      3  O   UNL d   1     -41.614-121.312 -52.537  0.00  0.00    -0.264 OA
ENDROOT
BRANCH   1   4
ATOM      4  C   UNL d   1     -41.619-122.568 -53.215  0.00  0.00     0.059 A 
ATOM      5  C   UNL d   1     -41.857-122.261 -53.949  0.00  0.00     0.005 A 
ATOM      6  C   UNL d   1     -41.719-122.716 -54.628  0.00  0.00     0.000 A 
ATOM      7  C   UNL d   1     -42.215-121.534 -53.999  0.00  0.00     0.000 A 
ATOM      8  C   UNL d   1     -41.951-122.420 -55.356  0.00  0.00     0.000 A 
ATOM      9  C   UNL d   1     -41.355-123.454 -54.577  0.00  0.00     0.000 A 
ATOM     10  C   UNL d   1     -42.310-121.693 -55.412  0.00  0.00     0.000 A 
ATOM     11  C   UNL d   1     -42.445-121.242 -54.727  0.00  0.00     0.000 A 
ATOM     12  C   UNL d   1     -41.123-123.750 -53.845  0.00  0.00     0.000 A 
ATOM     13  C   UNL d   1     -41.255-123.306 -53.159  0.00  0.00     0.005 A 
ENDBRANCH   1   4
BRANCH   2  14
ATOM     14  N   UNL d   1     -42.150-122.052 -51.168  0.00  0.00    -0.127 NA
BRANCH  14  15
ATOM     15  C   UNL d   1     -42.242-122.431 -50.439  0.00  0.00     0.178 A 
ATOM     16  N   UNL d   1     -42.930-122.329 -50.002  0.00  0.00    -0.240 N 
ATOM     17  C   UNL d   1     -43.019-122.704 -49.281  0.00  0.00     0.343 A 
ATOM     18  C   UNL d   1     -43.532-121.846 -50.292  0.00  0.00     0.105 C 
ATOM     19  N   UNL d   1     -42.417-123.187 -48.990  0.00  0.00    -0.224 N 
ATOM     20  O   UNL d   1     -43.712-122.601 -48.843  0.00  0.00    -0.245 OA
ATOM     21  C   UNL d   1     -41.719-123.300 -49.418  0.00  0.00     0.271 A 
ATOM     22  C   UNL d   1     -42.507-123.567 -48.262  0.00  0.00     0.107 C 
ATOM     23  C   UNL d   1     -41.639-122.914 -50.148  0.00  0.00     0.101 A 
ATOM     24  O   UNL d   1     -41.123-123.778 -49.130  0.00  0.00    -0.266 OA
ENDBRANCH  14  15
ENDBRANCH   2  14
TORSDOF 3
ENDMDL
MODEL 2
REMARK VINA RESULT:      -4.7      1.255      4.910
REMARK  3 active torsions:
REMARK  status: ('A' for Active; 'I' for Inactive)
REMARK    1  A    between atoms: N_9  and  C_4 
REMARK       I    between atoms: C_7  and  N_10 
REMARK    2  A    between atoms: C_8  and  C_7 
REMARK    3  A    between atoms: N_10  and  N_9 
ROOT
ATOM      1  C   UNL d   1     -41.824-122.349 -50.883  0.00  0.00     0.297 C 
ATOM      2  N   UNL d   1     -41.959-122.493 -51.682  0.00  0.00    -0.104 NA
ATOM      3  O   UNL d   1     -41.125-121.984 -50.641  0.00  0.00    -0.264 OA
ENDROOT
BRANCH   1   4
ATOM      4  C   UNL d   1     -42.388-122.570 -50.325  0.00  0.00     0.059 A 
ATOM      5  C   UNL d   1     -42.141-122.950 -49.630  0.00  0.00     0.005 A 
ATOM      6  C   UNL d   1     -42.717-123.168 -49.075  0.00  0.00     0.000 A 
ATOM      7  C   UNL d   1     -41.355-123.104 -49.497  0.00  0.00     0.000 A 
ATOM      8  C   UNL d   1     -42.482-123.544 -48.386  0.00  0.00     0.000 A 
ATOM      9  C   UNL d   1     -43.515-123.012 -49.210  0.00  0.00     0.000 A 
ATOM     10  C   UNL d   1     -41.696-123.700 -48.248  0.00  0.00     0.000 A 
ATOM     11  C   UNL d   1     -41.123-123.479 -48.808  0.00  0.00     0.000 A 
ATOM     12  C   UNL d   1     -43.751-122.634 -49.903  0.00  0.00     0.000 A 
ATOM     13  C   UNL d   1     -43.185-122.412 -50.464  0.00  0.00     0.005 A 
ENDBRANCH   1   4
BRANCH   2  14
ATOM     14  N   UNL d   1     -41.396-122.272 -52.240  0.00  0.00    -0.127 NA
BRANCH  14  15
ATOM     15  C   UNL d   1     -41.564-122.337 -53.047  0.00  0.00     0.178 A 
ATOM     16  N   UNL d   1     -41.428-123.043 -53.443  0.00  0.00    -0.240 N 
ATOM     17  C   UNL d   1     -41.595-123.106 -54.241  0.00  0.00     0.343 A 
ATOM     18  C   UNL d   1     -41.123-123.691 -53.034  0.00  0.00     0.105 C 
ATOM     19  N   UNL d   1     -41.900-122.458 -54.650  0.00  0.00    -0.224 N 
ATOM     20  O   UNL d   1     -41.458-123.817 -54.638  0.00  0.00    -0.245 OA
ATOM     21  C   UNL d   1     -42.042-121.741 -54.266  0.00  0.00     0.271 A 
ATOM     22  C   UNL d   1     -42.069-122.522 -55.457  0.00  0.00     0.107 C 
ATOM     23  C   UNL d   1     -41.869-121.689 -53.456  0.00  0.00     0.101 A 
ATOM     24  O   UNL d   1     -42.345-121.100 -54.672  0.00  0.00    -0.266 OA
ENDBRANCH  14  15
ENDBRANCH   2  14
TORSDOF 3
ENDMDL
MODEL 3
REMARK VINA RESULT:      -3.4      1.445      4.570
REMARK  3 active torsions:
REMARK  status: ('A' for Active; 'I' for Inactive)
REMARK    1  A    between atoms: N_9  and  C_4 
REMARK       I    between atoms: C_7  and  N_10 
REMARK    2  A    between atoms: C_8  and  C_7 
REMARK    3  A    between atoms: N_10  and  N_9 
ROOT
ATOM      1  C   UNL d   1     -41.709-122.177 -51.332  0.00  0.00     0.297 C 
ATOM      2  N   UNL d   1     -41.620-122.445 -52.105  0.00  0.00    -0.104 NA
ATOM      3  O   UNL d   1     -41.747-121.368 -51.176  0.00  0.00    -0.264 OA
ENDROOT
BRANCH   1   4
ATOM      4  C   UNL d   1     -41.761-122.718 -50.714  0.00  0.00     0.059 A 
ATOM      5  C   UNL d   1     -42.459-122.755 -50.266  0.00  0.00     0.005 A 
ATOM      6  C   UNL d   1     -42.501-123.304 -49.646  0.00  0.00     0.000 A 
ATOM      7  C   UNL d   1     -43.085-122.266 -50.432  0.00  0.00     0.000 A 
ATOM      8  C   UNL d   1     -43.186-123.346 -49.199  0.00  0.00     0.000 A 
ATOM      9  C   UNL d   1     -41.864-123.801 -49.478  0.00  0.00     0.000 A 
ATOM     10  C   UNL d   1     -43.816-122.858 -49.361  0.00  0.00     0.000 A 
ATOM     11  C   UNL d   1     -43.768-122.310 -49.984  0.00  0.00     0.000 A 
ATOM     12  C   UNL d   1     -41.176-123.758 -49.927  0.00  0.00     0.000 A 
ATOM     13  C   UNL d   1     -41.123-123.214 -50.549  0.00  0.00     0.005 A 
ENDBRANCH   1   4
BRANCH   2  14
ATOM     14  N   UNL d   1     -41.569-121.904 -52.723  0.00  0.00    -0.127 NA
BRANCH  14  15
ATOM     15  C   UNL d   1     -41.722-122.145 -53.499  0.00  0.00     0.178 A 
ATOM     16  N   UNL d   1     -42.247-121.722 -53.969  0.00  0.00    -0.240 N 
ATOM     17  C   UNL d   1     -42.398-121.961 -54.735  0.00  0.00     0.343 A 
ATOM     18  C   UNL d   1     -42.621-121.053 -53.665  0.00  0.00     0.105 C 
ATOM     19  N   UNL d   1     -42.023-122.630 -55.040  0.00  0.00    -0.224 N 
ATOM     20  O   UNL d   1     -42.925-121.534 -55.207  0.00  0.00    -0.245 OA
ATOM     21  C   UNL d   1     -41.494-123.067 -54.580  0.00  0.00     0.271 A 
ATOM     22  C   UNL d   1     -42.176-122.872 -55.815  0.00  0.00     0.107 C 
ATOM     23  C   UNL d   1     -41.348-122.814 -53.803  0.00  0.00     0.101 A 
ATOM     24  O   UNL d   1     -41.123-123.729 -54.882  0.00  0.00    -0.266 OA
ENDBRANCH  14  15
ENDBRANCH   2  14
TORSDOF 3
ENDMDL
