MODEL 1
REMARK VINA RESULT:     102.4      0.000      0.000
REMARK  6 active torsions:
REMARK  status: ('A' for Active; 'I' for Inactive)
REMARK    1  A    between atoms: N_4  and  C_2 
REMARK    2  A    between atoms: C_9  and  N_4 
REMARK    3  A    between atoms: O_16  and  C_8 
REMARK    4  A    between atoms: O_24  and  C_10 
REMARK    5  A    between atoms: C_22  and  O_16 
REMARK    6  A    between atoms: C_26  and  C_22 
ROOT
ATOM      1  C   UNL d   1      61.136  46.939  50.670  0.00  0.00     0.056 A 
ATOM      2  C   UNL d   1      61.338  46.142  50.633  0.00  0.00     0.166 A 
ATOM      3  C   UNL d   1      61.133  47.398  49.984  0.00  0.00     0.088 A 
ATOM      4  C   UNL d   1      60.936  47.278  51.394  0.00  0.00     0.031 A 
ATOM      5  N   UNL d   1      61.540  45.797  49.905  0.00  0.00    -0.205 NA
ATOM      6  C   UNL d   1      60.931  48.195  50.022  0.00  0.00     0.046 A 
ATOM      7  C   UNL d   1      60.731  48.534  50.745  0.00  0.00     0.124 A 
ATOM      8  C   UNL d   1      60.734  48.075  51.431  0.00  0.00     0.117 A 
ATOM      9  N   UNL d   1      61.333  47.059  49.261  0.00  0.00    -0.224 NA
ATOM     10  C   UNL d   1      61.537  46.256  49.219  0.00  0.00     0.200 A 
ENDROOT
BRANCH   2  11
ATOM     11  N   UNL d   1      61.340  45.679  51.325  0.00  0.00    -0.224 NA
BRANCH  11  12
ATOM     12  C   UNL d   1      61.498  44.877  51.274  0.00  0.00     0.110 A 
ATOM     13  C   UNL d   1      61.206  44.348  51.837  0.00  0.00     0.158 A 
ATOM     14  C   UNL d   1      61.363  43.541  51.787  0.00  0.00     0.038 A 
ATOM     15  F   UNL d   1      60.745  44.636  52.468  0.00  0.00    -0.203 F 
ATOM     16  C   UNL d   1      61.825  43.252  51.156  0.00  0.00     0.037 A 
ATOM     17  C   UNL d   1      62.121  43.783  50.585  0.00  0.00     0.008 A 
ATOM     18 BR   UNL d   1      61.985  42.436  51.103  0.00  0.00    -0.049 Br
ATOM     19  C   UNL d   1      61.959  44.588  50.643  0.00  0.00     0.022 A 
ENDBRANCH  11  12
ENDBRANCH   2  11
BRANCH   8  20
ATOM     20  O   UNL d   1      60.531  48.424  52.161  0.00  0.00    -0.326 OA
ATOM     21  C   UNL d   1      60.827  49.168  52.360  0.00  0.00     0.181 C 
ENDBRANCH   8  20
BRANCH   7  22
ATOM     22  O   UNL d   1      60.526  49.343  50.786  0.00  0.00    -0.303 OA
BRANCH  22  23
ATOM     23  C   UNL d   1      60.055  49.684  50.197  0.00  0.00     0.123 C 
BRANCH  23  24
ATOM     24  C   UNL d   1      59.232  49.686  50.282  0.00  0.00     0.028 A 
ATOM     25  C   UNL d   1      58.891  49.673  51.038  0.00  0.00     0.021 A 
ATOM     26  C   UNL d   1      58.071  49.675  51.116  0.00  0.00     0.080 A 
ATOM     27  N   UNL d   1      57.580  49.691  50.446  0.00  0.00    -0.301 N 
ATOM     28  C   UNL d   1      57.921  49.705  49.695  0.00  0.00     0.080 A 
ATOM     29  C   UNL d   1      56.744  49.694  50.530  0.00  0.00     0.100 C 
ATOM     30  C   UNL d   1      58.748  49.703  49.611  0.00  0.00     0.021 A 
ENDBRANCH  23  24
ENDBRANCH  22  23
ENDBRANCH   7  22
TORSDOF 6
ENDMDL
MODEL 2
REMARK VINA RESULT:     105.2      1.021      1.609
REMARK  6 active torsions:
REMARK  status: ('A' for Active; 'I' for Inactive)
REMARK    1  A    between atoms: N_4  and  C_2 
REMARK    2  A    between atoms: C_9  and  N_4 
REMARK    3  A    between atoms: O_16  and  C_8 
REMARK    4  A    between atoms: O_24  and  C_10 
REMARK    5  A    between atoms: C_22  and  O_16 
REMARK    6  A    between atoms: C_26  and  C_22 
ROOT
ATOM      1  C   UNL d   1      60.924  46.876  50.841  0.00  0.00     0.056 A 
ATOM      2  C   UNL d   1      61.036  46.061  50.838  0.00  0.00     0.166 A 
ATOM      3  C   UNL d   1      60.540  47.239  51.476  0.00  0.00     0.088 A 
ATOM      4  C   UNL d   1      61.196  47.331  50.211  0.00  0.00     0.031 A 
ATOM      5  N   UNL d   1      60.762  45.600  51.472  0.00  0.00    -0.205 NA
ATOM      6  C   UNL d   1      60.428  48.055  51.479  0.00  0.00     0.046 A 
ATOM      7  C   UNL d   1      60.700  48.508  50.849  0.00  0.00     0.124 A 
ATOM      8  C   UNL d   1      61.085  48.146  50.214  0.00  0.00     0.117 A 
ATOM      9  N   UNL d   1      60.268  46.785  52.106  0.00  0.00    -0.224 NA
ATOM     10  C   UNL d   1      60.378  45.962  52.107  0.00  0.00     0.200 A 
ENDROOT
BRANCH   2  11
ATOM     11  N   UNL d   1      61.423  45.696  50.198  0.00  0.00    -0.224 NA
BRANCH  11  12
ATOM     12  C   UNL d   1      61.696  44.927  50.276  0.00  0.00     0.110 A 
ATOM     13  C   UNL d   1      61.889  44.473  49.614  0.00  0.00     0.158 A 
ATOM     14  C   UNL d   1      62.163  43.700  49.690  0.00  0.00     0.038 A 
ATOM     15  F   UNL d   1      61.805  44.804  48.854  0.00  0.00    -0.203 F 
ATOM     16  C   UNL d   1      62.246  43.369  50.451  0.00  0.00     0.037 A 
ATOM     17  C   UNL d   1      62.052  43.824  51.122  0.00  0.00     0.008 A 
ATOM     18 BR   UNL d   1      62.523  42.587  50.532  0.00  0.00    -0.049 Br
ATOM     19  C   UNL d   1      61.779  44.596  51.036  0.00  0.00     0.022 A 
ENDBRANCH  11  12
ENDBRANCH   2  11
BRANCH   8  20
ATOM     20  O   UNL d   1      61.358  48.611  49.578  0.00  0.00    -0.326 OA
ATOM     21  C   UNL d   1      61.802  49.292  49.725  0.00  0.00     0.181 C 
ENDBRANCH   8  20
BRANCH   7  22
ATOM     22  O   UNL d   1      60.589  49.336  50.850  0.00  0.00    -0.303 OA
BRANCH  22  23
ATOM     23  C   UNL d   1      59.984  49.675  51.301  0.00  0.00     0.123 C 
BRANCH  23  24
ATOM     24  C   UNL d   1      59.210  49.682  51.008  0.00  0.00     0.028 A 
ATOM     25  C   UNL d   1      58.566  49.673  51.531  0.00  0.00     0.021 A 
ATOM     26  C   UNL d   1      57.798  49.680  51.233  0.00  0.00     0.080 A 
ATOM     27  N   UNL d   1      57.660  49.697  50.415  0.00  0.00    -0.301 N 
ATOM     28  C   UNL d   1      58.301  49.706  49.896  0.00  0.00     0.080 A 
ATOM     29  C   UNL d   1      56.874  49.704  50.116  0.00  0.00     0.100 C 
ATOM     30  C   UNL d   1      59.078  49.699  50.191  0.00  0.00     0.021 A 
ENDBRANCH  23  24
ENDBRANCH  22  23
ENDBRANCH   7  22
TORSDOF 6
ENDMDL
