MODEL 1
REMARK VINA RESULT:      -6.1      0.000      0.000
REMARK  5 active torsions:
REMARK  status: ('A' for Active; 'I' for Inactive)
REMARK    1  A    between atoms: N_10  and  C_4 
REMARK    2  A    between atoms: C_11  and  N_5 
REMARK    3  A    between atoms: C_14  and  N_10 
REMARK    4  A    between atoms: C_15  and  C_11 
REMARK    5  A    between atoms: C_18  and  C_14 
ROOT
ATOM      1  C   UNL d   1     -40.211  15.233  18.054  0.00  0.00     0.191 A 
ATOM      2  C   UNL d   1     -39.731  14.898  17.534  0.00  0.00     0.174 A 
ATOM      3  N   UNL d   1     -40.008  15.306  18.820  0.00  0.00    -0.042 NA
ATOM      4  C   UNL d   1     -39.311  15.034  19.053  0.00  0.00     0.722 A 
ATOM      5  N   UNL d   1     -38.806  14.686  18.524  0.00  0.00    -0.132 N 
ATOM      6  N   UNL d   1     -40.927  15.513  17.818  0.00  0.00    -0.239 N 
ATOM      7  C   UNL d   1     -41.152  15.453  17.063  0.00  0.00     0.358 A 
ATOM      8  N   UNL d   1     -40.663  15.112  16.534  0.00  0.00    -0.152 NA
ATOM      9  C   UNL d   1     -39.955  14.835  16.766  0.00  0.00     0.303 A 
ATOM     10  O   UNL d   1     -41.868  15.732  16.827  0.00  0.00    -0.244 OA
ATOM     11  O   UNL d   1     -39.454  14.485  16.224  0.00  0.00    -0.263 OA
ATOM     12  C   UNL d   1     -41.421  15.858  18.354  0.00  0.00     0.105 C 
ENDROOT
BRANCH   4  13
ATOM     13  N   UNL d   1     -39.092  15.098  19.813  0.00  0.00    -0.137 N 
ATOM     14  C   UNL d   1     -38.462  15.454  20.210  0.00  0.00     0.118 C 
BRANCH  13  15
ATOM     15  C   UNL d   1     -39.549  14.755  20.404  0.00  0.00     0.098 C 
BRANCH  15  16
ATOM     16  C   UNL d   1     -39.398  14.929  21.199  0.00  0.00     0.018 A 
ATOM     17  C   UNL d   1     -39.534  15.699  21.483  0.00  0.00     0.002 A 
ATOM     18  C   UNL d   1     -39.383  15.873  22.278  0.00  0.00     0.000 A 
ATOM     19  C   UNL d   1     -39.099  15.282  22.784  0.00  0.00     0.000 A 
ATOM     20  C   UNL d   1     -38.966  14.514  22.493  0.00  0.00     0.000 A 
ATOM     21  C   UNL d   1     -39.117  14.340  21.698  0.00  0.00     0.002 A 
ENDBRANCH  15  16
ENDBRANCH  13  15
ENDBRANCH   4  13
BRANCH   5  22
ATOM     22  C   UNL d   1     -38.089  14.317  18.351  0.00  0.00     0.098 C 
BRANCH  22  23
ATOM     23  C   UNL d   1     -38.039  13.492  18.335  0.00  0.00     0.018 A 
ATOM     24  C   UNL d   1     -38.021  13.112  17.611  0.00  0.00     0.002 A 
ATOM     25  C   UNL d   1     -37.971  12.287  17.595  0.00  0.00     0.000 A 
ATOM     26  C   UNL d   1     -37.940  11.716  17.001  0.00  0.00     0.000 C 
ATOM     27  C   UNL d   1     -37.940  11.856  18.304  0.00  0.00     0.000 A 
ATOM     28  C   UNL d   1     -37.960  12.261  19.025  0.00  0.00     0.000 A 
ATOM     29  C   UNL d   1     -38.010  13.077  19.040  0.00  0.00     0.002 A 
ENDBRANCH  22  23
ENDBRANCH   5  22
TORSDOF 5
ENDMDL
MODEL 2
REMARK VINA RESULT:      -4.9      8.279      9.623
REMARK  5 active torsions:
REMARK  status: ('A' for Active; 'I' for Inactive)
REMARK    1  A    between atoms: N_10  and  C_4 
REMARK    2  A    between atoms: C_11  and  N_5 
REMARK    3  A    between atoms: C_14  and  N_10 
REMARK    4  A    between atoms: C_15  and  C_11 
REMARK    5  A    between atoms: C_18  and  C_14 
ROOT
ATOM      1  C   UNL d   1     -46.716  13.836  22.841  0.00  0.00     0.191 A 
ATOM      2  C   UNL d   1     -47.470  13.885  23.050  0.00  0.00     0.174 A 
ATOM      3  N   UNL d   1     -46.313  13.152  22.898  0.00  0.00    -0.042 NA
ATOM      4  C   UNL d   1     -46.685  12.517  23.170  0.00  0.00     0.722 A 
ATOM      5  N   UNL d   1     -47.463  12.557  23.389  0.00  0.00    -0.132 N 
ATOM      6  N   UNL d   1     -46.333  14.485  22.562  0.00  0.00    -0.239 N 
ATOM      7  C   UNL d   1     -46.710  15.176  22.496  0.00  0.00     0.358 A 
ATOM      8  N   UNL d   1     -47.477  15.226  22.708  0.00  0.00    -0.152 NA
ATOM      9  C   UNL d   1     -47.857  14.585  22.984  0.00  0.00     0.303 A 
ATOM     10  O   UNL d   1     -46.327  15.825  22.217  0.00  0.00    -0.244 OA
ATOM     11  O   UNL d   1     -48.643  14.636  23.202  0.00  0.00    -0.263 OA
ATOM     12  C   UNL d   1     -45.557  14.434  22.348  0.00  0.00     0.105 C 
ENDROOT
BRANCH   4  13
ATOM     13  N   UNL d   1     -46.299  11.826  23.234  0.00  0.00    -0.137 N 
ATOM     14  C   UNL d   1     -46.387  11.150  23.698  0.00  0.00     0.118 C 
BRANCH  13  15
ATOM     15  C   UNL d   1     -45.646  11.674  22.759  0.00  0.00     0.098 C 
BRANCH  15  16
ATOM     16  C   UNL d   1     -45.042  11.176  23.030  0.00  0.00     0.018 A 
ATOM     17  C   UNL d   1     -44.249  11.385  22.899  0.00  0.00     0.002 A 
ATOM     18  C   UNL d   1     -43.645  10.887  23.170  0.00  0.00     0.000 A 
ATOM     19  C   UNL d   1     -43.836  10.187  23.570  0.00  0.00     0.000 A 
ATOM     20  C   UNL d   1     -44.632   9.985  23.698  0.00  0.00     0.000 A 
ATOM     21  C   UNL d   1     -45.236  10.483  23.426  0.00  0.00     0.002 A 
ENDBRANCH  15  16
ENDBRANCH  13  15
ENDBRANCH   4  13
BRANCH   5  22
ATOM     22  C   UNL d   1     -48.147  12.199  23.681  0.00  0.00     0.098 C 
BRANCH  22  23
ATOM     23  C   UNL d   1     -48.791  12.064  23.182  0.00  0.00     0.018 A 
ATOM     24  C   UNL d   1     -49.544  12.236  23.453  0.00  0.00     0.002 A 
ATOM     25  C   UNL d   1     -50.188  12.100  22.953  0.00  0.00     0.000 A 
ATOM     26  C   UNL d   1     -51.004  12.197  23.015  0.00  0.00     0.000 C 
ATOM     27  C   UNL d   1     -50.069  11.794  22.190  0.00  0.00     0.000 A 
ATOM     28  C   UNL d   1     -49.300  11.627  21.937  0.00  0.00     0.000 A 
ATOM     29  C   UNL d   1     -48.662  11.762  22.431  0.00  0.00     0.002 A 
ENDBRANCH  22  23
ENDBRANCH   5  22
TORSDOF 5
ENDMDL
MODEL 3
REMARK VINA RESULT:      -4.2      8.723     10.501
REMARK  5 active torsions:
REMARK  status: ('A' for Active; 'I' for Inactive)
REMARK    1  A    between atoms: N_10  and  C_4 
REMARK    2  A    between atoms: C_11  and  N_5 
REMARK    3  A    between atoms: C_14  and  N_10 
REMARK    4  A    between atoms: C_15  and  C_11 
REMARK    5  A    between atoms: C_18  and  C_14 
ROOT
ATOM      1  C   UNL d   1     -46.492  13.127  22.569  0.00  0.00     0.191 A 
ATOM      2  C   UNL d   1     -46.474  13.858  22.853  0.00  0.00     0.174 A 
ATOM      3  N   UNL d   1     -47.138  12.669  22.641  0.00  0.00    -0.042 NA
ATOM      4  C   UNL d   1     -47.768  12.961  23.005  0.00  0.00     0.722 A 
ATOM      5  N   UNL d   1     -47.761  13.714  23.302  0.00  0.00    -0.132 N 
ATOM      6  N   UNL d   1     -45.847  12.826  22.195  0.00  0.00    -0.239 N 
ATOM      7  C   UNL d   1     -45.192  13.261  22.110  0.00  0.00     0.358 A 
ATOM      8  N   UNL d   1     -45.175  14.003  22.399  0.00  0.00    -0.152 NA
ATOM      9  C   UNL d   1     -45.812  14.303  22.769  0.00  0.00     0.303 A 
ATOM     10  O   UNL d   1     -44.548  12.959  21.737  0.00  0.00    -0.244 OA
ATOM     11  O   UNL d   1     -45.794  15.064  23.064  0.00  0.00    -0.263 OA
ATOM     12  C   UNL d   1     -45.865  12.075  21.904  0.00  0.00     0.105 C 
ENDROOT
BRANCH   4  13
ATOM     13  N   UNL d   1     -48.422  12.518  23.087  0.00  0.00    -0.137 N 
ATOM     14  C   UNL d   1     -48.958  12.376  23.698  0.00  0.00     0.118 C 
BRANCH  13  15
ATOM     15  C   UNL d   1     -48.693  12.065  22.457  0.00  0.00     0.098 C 
BRANCH  15  16
ATOM     16  C   UNL d   1     -49.485  12.116  22.219  0.00  0.00     0.018 A 
ATOM     17  C   UNL d   1     -50.088  11.929  22.760  0.00  0.00     0.002 A 
ATOM     18  C   UNL d   1     -50.880  11.980  22.523  0.00  0.00     0.000 A 
ATOM     19  C   UNL d   1     -51.064  12.217  21.751  0.00  0.00     0.000 A 
ATOM     20  C   UNL d   1     -50.457  12.403  21.216  0.00  0.00     0.000 A 
ATOM     21  C   UNL d   1     -49.665  12.352  21.453  0.00  0.00     0.002 A 
ENDBRANCH  15  16
ENDBRANCH  13  15
ENDBRANCH   4  13
BRANCH   5  22
ATOM     22  C   UNL d   1     -48.135  14.335  23.696  0.00  0.00     0.098 C 
BRANCH  22  23
ATOM     23  C   UNL d   1     -48.626  14.854  23.282  0.00  0.00     0.018 A 
ATOM     24  C   UNL d   1     -49.356  15.046  23.600  0.00  0.00     0.002 A 
ATOM     25  C   UNL d   1     -49.847  15.566  23.185  0.00  0.00     0.000 A 
ATOM     26  C   UNL d   1     -50.596  15.886  23.313  0.00  0.00     0.000 C 
ATOM     27  C   UNL d   1     -49.601  15.885  22.459  0.00  0.00     0.000 A 
ATOM     28  C   UNL d   1     -48.860  15.678  22.157  0.00  0.00     0.000 A 
ATOM     29  C   UNL d   1     -48.374  15.164  22.567  0.00  0.00     0.002 A 
ENDBRANCH  22  23
ENDBRANCH   5  22
TORSDOF 5
ENDMDL
MODEL 4
REMARK VINA RESULT:      -4.2      2.199      3.519
REMARK  5 active torsions:
REMARK  status: ('A' for Active; 'I' for Inactive)
REMARK    1  A    between atoms: N_10  and  C_4 
REMARK    2  A    between atoms: C_11  and  N_5 
REMARK    3  A    between atoms: C_14  and  N_10 
REMARK    4  A    between atoms: C_15  and  C_11 
REMARK    5  A    between atoms: C_18  and  C_14 
ROOT
ATOM      1  C   UNL d   1     -40.009  14.829  19.119  0.00  0.00     0.191 A 
ATOM      2  C   UNL d   1     -39.359  15.087  19.473  0.00  0.00     0.174 A 
ATOM      3  N   UNL d   1     -40.621  14.537  19.535  0.00  0.00    -0.042 NA
ATOM      4  C   UNL d   1     -40.567  14.510  20.317  0.00  0.00     0.722 A 
ATOM      5  N   UNL d   1     -39.901  14.773  20.693  0.00  0.00    -0.132 N 
ATOM      6  N   UNL d   1     -40.067  14.856  18.317  0.00  0.00    -0.239 N 
ATOM      7  C   UNL d   1     -39.473  15.141  17.881  0.00  0.00     0.358 A 
ATOM      8  N   UNL d   1     -38.813  15.403  18.242  0.00  0.00    -0.152 NA
ATOM      9  C   UNL d   1     -38.753  15.377  19.035  0.00  0.00     0.303 A 
ATOM     10  O   UNL d   1     -39.532  15.169  17.080  0.00  0.00    -0.244 OA
ATOM     11  O   UNL d   1     -38.076  15.646  19.404  0.00  0.00    -0.263 OA
ATOM     12  C   UNL d   1     -40.736  14.591  17.953  0.00  0.00     0.105 C 
ENDROOT
BRANCH   4  13
ATOM     13  N   UNL d   1     -41.168  14.222  20.748  0.00  0.00    -0.137 N 
ATOM     14  C   UNL d   1     -41.651  14.520  21.347  0.00  0.00     0.118 C 
BRANCH  13  15
ATOM     15  C   UNL d   1     -41.429  13.452  20.627  0.00  0.00     0.098 C 
BRANCH  15  16
ATOM     16  C   UNL d   1     -42.132  13.193  20.982  0.00  0.00     0.018 A 
ATOM     17  C   UNL d   1     -42.098  12.645  21.606  0.00  0.00     0.002 A 
ATOM     18  C   UNL d   1     -42.800  12.385  21.960  0.00  0.00     0.000 A 
ATOM     19  C   UNL d   1     -43.529  12.673  21.690  0.00  0.00     0.000 A 
ATOM     20  C   UNL d   1     -43.555  13.220  21.065  0.00  0.00     0.000 A 
ATOM     21  C   UNL d   1     -42.853  13.480  20.711  0.00  0.00     0.002 A 
ENDBRANCH  15  16
ENDBRANCH  13  15
ENDBRANCH   4  13
BRANCH   5  22
ATOM     22  C   UNL d   1     -39.473  14.913  21.385  0.00  0.00     0.098 C 
BRANCH  22  23
ATOM     23  C   UNL d   1     -39.045  14.302  21.739  0.00  0.00     0.018 A 
ATOM     24  C   UNL d   1     -39.136  14.169  22.542  0.00  0.00     0.002 A 
ATOM     25  C   UNL d   1     -38.708  13.558  22.896  0.00  0.00     0.000 A 
ATOM     26  C   UNL d   1     -38.646  13.256  23.661  0.00  0.00     0.000 C 
ATOM     27  C   UNL d   1     -38.194  13.089  22.442  0.00  0.00     0.000 A 
ATOM     28  C   UNL d   1     -38.117  13.240  21.633  0.00  0.00     0.000 A 
ATOM     29  C   UNL d   1     -38.542  13.845  21.282  0.00  0.00     0.002 A 
ENDBRANCH  22  23
ENDBRANCH   5  22
TORSDOF 5
ENDMDL
MODEL 5
REMARK VINA RESULT:      -3.8      8.812     10.058
REMARK  5 active torsions:
REMARK  status: ('A' for Active; 'I' for Inactive)
REMARK    1  A    between atoms: N_10  and  C_4 
REMARK    2  A    between atoms: C_11  and  N_5 
REMARK    3  A    between atoms: C_14  and  N_10 
REMARK    4  A    between atoms: C_15  and  C_11 
REMARK    5  A    between atoms: C_18  and  C_14 
ROOT
ATOM      1  C   UNL d   1     -48.644  12.384  23.008  0.00  0.00     0.191 A 
ATOM      2  C   UNL d   1     -47.921  12.167  23.220  0.00  0.00     0.174 A 
ATOM      3  N   UNL d   1     -48.799  13.123  22.757  0.00  0.00    -0.042 NA
ATOM      4  C   UNL d   1     -48.211  13.641  22.723  0.00  0.00     0.722 A 
ATOM      5  N   UNL d   1     -47.461  13.428  22.939  0.00  0.00    -0.132 N 
ATOM      6  N   UNL d   1     -49.248  11.855  23.042  0.00  0.00    -0.239 N 
ATOM      7  C   UNL d   1     -49.120  11.115  23.289  0.00  0.00     0.358 A 
ATOM      8  N   UNL d   1     -48.385  10.895  23.504  0.00  0.00    -0.152 NA
ATOM      9  C   UNL d   1     -47.786  11.417  23.470  0.00  0.00     0.303 A 
ATOM     10  O   UNL d   1     -49.724  10.586  23.323  0.00  0.00    -0.244 OA
ATOM     11  O   UNL d   1     -47.032  11.192  23.691  0.00  0.00    -0.263 OA
ATOM     12  C   UNL d   1     -49.991  12.078  22.825  0.00  0.00     0.105 C 
ENDROOT
BRANCH   4  13
ATOM     13  N   UNL d   1     -48.348  14.382  22.475  0.00  0.00    -0.137 N 
ATOM     14  C   UNL d   1     -48.330  14.765  21.744  0.00  0.00     0.118 C 
BRANCH  13  15
ATOM     15  C   UNL d   1     -48.563  14.964  23.014  0.00  0.00     0.098 C 
BRANCH  15  16
ATOM     16  C   UNL d   1     -49.327  15.284  22.997  0.00  0.00     0.018 A 
ATOM     17  C   UNL d   1     -49.742  15.314  22.278  0.00  0.00     0.002 A 
ATOM     18  C   UNL d   1     -50.506  15.634  22.261  0.00  0.00     0.000 A 
ATOM     19  C   UNL d   1     -50.850  15.919  22.959  0.00  0.00     0.000 A 
ATOM     20  C   UNL d   1     -50.428  15.885  23.675  0.00  0.00     0.000 A 
ATOM     21  C   UNL d   1     -49.664  15.566  23.691  0.00  0.00     0.002 A 
ENDBRANCH  15  16
ENDBRANCH  13  15
ENDBRANCH   4  13
BRANCH   5  22
ATOM     22  C   UNL d   1     -46.664  13.613  23.046  0.00  0.00     0.098 C 
BRANCH  22  23
ATOM     23  C   UNL d   1     -46.100  13.352  22.501  0.00  0.00     0.018 A 
ATOM     24  C   UNL d   1     -45.419  12.993  22.779  0.00  0.00     0.002 A 
ATOM     25  C   UNL d   1     -44.855  12.733  22.234  0.00  0.00     0.000 A 
ATOM     26  C   UNL d   1     -44.123  12.358  22.288  0.00  0.00     0.000 C 
ATOM     27  C   UNL d   1     -44.981  12.836  21.420  0.00  0.00     0.000 A 
ATOM     28  C   UNL d   1     -45.676  13.201  21.161  0.00  0.00     0.000 A 
ATOM     29  C   UNL d   1     -46.234  13.459  21.701  0.00  0.00     0.002 A 
ENDBRANCH  22  23
ENDBRANCH   5  22
TORSDOF 5
ENDMDL
