MODEL 1
REMARK VINA RESULT:     128.7      0.000      0.000
REMARK  5 active torsions:
REMARK  status: ('A' for Active; 'I' for Inactive)
REMARK    1  A    between atoms: C_2  and  S_1 
REMARK    2  A    between atoms: C_12  and  S_1 
REMARK    3  A    between atoms: N_5  and  C_3 
REMARK    4  A    between atoms: C_18  and  N_7 
REMARK    5  A    between atoms: O_22  and  C_20 
ROOT
ATOM      1  C   UNL d   1     -50.050  26.408  33.594  0.00  0.00     0.123 A 
ATOM      2  C   UNL d   1     -50.842  26.646  33.609  0.00  0.00     0.078 A 
ATOM      3  C   UNL d   1     -51.032  27.444  33.543  0.00  0.00     0.036 A 
ATOM      4  C   UNL d   1     -49.452  26.970  33.514  0.00  0.00     0.112 A 
ATOM      5  N   UNL d   1     -49.646  27.771  33.448  0.00  0.00    -0.243 NA
ATOM      6  C   UNL d   1     -50.434  28.007  33.463  0.00  0.00     0.083 A 
ATOM      7  C   UNL d   1     -51.821  27.680  33.558  0.00  0.00     0.027 A 
ATOM      8  C   UNL d   1     -50.625  28.805  33.397  0.00  0.00     0.021 A 
ATOM      9  C   UNL d   1     -52.017  28.485  33.492  0.00  0.00     0.094 A 
ATOM     10  C   UNL d   1     -51.419  29.048  33.411  0.00  0.00     0.026 A 
ENDROOT
BRANCH   2  11
ATOM     11  N   UNL d   1     -51.446  26.078  33.690  0.00  0.00    -0.301 N 
ATOM     12  C   UNL d   1     -51.355  25.328  33.347  0.00  0.00     0.100 A 
ATOM     13  C   UNL d   1     -51.961  24.768  33.433  0.00  0.00     0.100 A 
ATOM     14  N   UNL d   1     -52.648  24.953  33.853  0.00  0.00    -0.301 N 
ATOM     15  C   UNL d   1     -52.736  25.707  34.196  0.00  0.00     0.100 A 
ATOM     16  C   UNL d   1     -52.133  26.265  34.111  0.00  0.00     0.100 A 
BRANCH  14  17
ATOM     17  C   UNL d   1     -53.246  24.391  33.934  0.00  0.00     0.064 A 
ATOM     18  C   UNL d   1     -53.865  24.365  33.381  0.00  0.00     0.018 A 
ATOM     19  C   UNL d   1     -54.465  23.804  33.458  0.00  0.00     0.002 A 
ATOM     20  C   UNL d   1     -54.448  23.271  34.084  0.00  0.00     0.000 A 
ATOM     21  C   UNL d   1     -53.831  23.297  34.634  0.00  0.00     0.002 A 
ATOM     22  C   UNL d   1     -53.233  23.860  34.553  0.00  0.00     0.018 A 
ENDBRANCH  14  17
ENDBRANCH   2  11
BRANCH   1  23
ATOM     23  S   UNL d   1     -49.855  25.603  33.660  0.00  0.00     0.213 S 
ATOM     24  O   UNL d   1     -49.133  25.806  34.010  0.00  0.00    -0.217 OA
ATOM     25  O   UNL d   1     -50.581  25.395  33.308  0.00  0.00    -0.217 OA
BRANCH  23  26
ATOM     26  C   UNL d   1     -49.661  24.802  33.726  0.00  0.00     0.088 A 
ATOM     27  C   UNL d   1     -50.152  24.285  34.140  0.00  0.00     0.011 A 
ATOM     28  C   UNL d   1     -49.962  23.487  34.207  0.00  0.00     0.001 A 
ATOM     29  C   UNL d   1     -49.266  23.190  33.855  0.00  0.00     0.000 A 
ATOM     30  C   UNL d   1     -48.771  23.709  33.439  0.00  0.00     0.001 A 
ATOM     31  C   UNL d   1     -48.973  24.514  33.377  0.00  0.00     0.011 A 
ENDBRANCH  23  26
ENDBRANCH   1  23
BRANCH   9  32
ATOM     32  O   UNL d   1     -52.812  28.715  33.507  0.00  0.00    -0.328 OA
ATOM     33  C   UNL d   1     -53.010  29.477  33.760  0.00  0.00     0.181 C 
ENDBRANCH   9  32
TORSDOF 5
ENDMDL
MODEL 2
REMARK VINA RESULT:     129.9      2.422      3.273
REMARK  5 active torsions:
REMARK  status: ('A' for Active; 'I' for Inactive)
REMARK    1  A    between atoms: C_2  and  S_1 
REMARK    2  A    between atoms: C_12  and  S_1 
REMARK    3  A    between atoms: N_5  and  C_3 
REMARK    4  A    between atoms: C_18  and  N_7 
REMARK    5  A    between atoms: O_22  and  C_20 
ROOT
ATOM      1  C   UNL d   1     -50.038  26.894  33.934  0.00  0.00     0.123 A 
ATOM      2  C   UNL d   1     -49.907  27.188  34.697  0.00  0.00     0.078 A 
ATOM      3  C   UNL d   1     -49.315  27.745  34.826  0.00  0.00     0.036 A 
ATOM      4  C   UNL d   1     -49.575  27.160  33.305  0.00  0.00     0.112 A 
ATOM      5  N   UNL d   1     -48.980  27.719  33.439  0.00  0.00    -0.243 NA
ATOM      6  C   UNL d   1     -48.851  28.010  34.197  0.00  0.00     0.083 A 
ATOM      7  C   UNL d   1     -49.186  28.036  35.586  0.00  0.00     0.027 A 
ATOM      8  C   UNL d   1     -48.259  28.567  34.328  0.00  0.00     0.021 A 
ATOM      9  C   UNL d   1     -48.589  28.598  35.721  0.00  0.00     0.094 A 
ATOM     10  C   UNL d   1     -48.125  28.864  35.092  0.00  0.00     0.026 A 
ENDROOT
BRANCH   2  11
ATOM     11  N   UNL d   1     -50.375  26.920  35.332  0.00  0.00    -0.301 N 
ATOM     12  C   UNL d   1     -50.054  26.390  35.885  0.00  0.00     0.100 A 
ATOM     13  C   UNL d   1     -50.527  26.127  36.514  0.00  0.00     0.100 A 
ATOM     14  N   UNL d   1     -51.307  26.390  36.591  0.00  0.00    -0.301 N 
ATOM     15  C   UNL d   1     -51.624  26.922  36.035  0.00  0.00     0.100 A 
ATOM     16  C   UNL d   1     -51.155  27.183  35.408  0.00  0.00     0.100 A 
BRANCH  14  17
ATOM     17  C   UNL d   1     -51.770  26.124  37.220  0.00  0.00     0.064 A 
ATOM     18  C   UNL d   1     -52.510  25.778  37.070  0.00  0.00     0.018 A 
ATOM     19  C   UNL d   1     -52.976  25.511  37.697  0.00  0.00     0.002 A 
ATOM     20  C   UNL d   1     -52.706  25.590  38.470  0.00  0.00     0.000 A 
ATOM     21  C   UNL d   1     -51.969  25.934  38.618  0.00  0.00     0.002 A 
ATOM     22  C   UNL d   1     -51.505  26.200  37.989  0.00  0.00     0.018 A 
ENDBRANCH  14  17
ENDBRANCH   2  11
BRANCH   1  23
ATOM     23  S   UNL d   1     -50.634  26.333  33.800  0.00  0.00     0.213 S 
ATOM     24  O   UNL d   1     -50.075  25.725  33.846  0.00  0.00    -0.217 OA
ATOM     25  O   UNL d   1     -51.202  26.942  33.753  0.00  0.00    -0.217 OA
BRANCH  23  26
ATOM     26  C   UNL d   1     -51.229  25.774  33.666  0.00  0.00     0.088 A 
ATOM     27  C   UNL d   1     -51.993  26.014  33.469  0.00  0.00     0.011 A 
ATOM     28  C   UNL d   1     -52.587  25.461  33.335  0.00  0.00     0.001 A 
ATOM     29  C   UNL d   1     -52.423  24.645  33.397  0.00  0.00     0.000 A 
ATOM     30  C   UNL d   1     -51.655  24.402  33.594  0.00  0.00     0.001 A 
ATOM     31  C   UNL d   1     -51.062  24.970  33.728  0.00  0.00     0.011 A 
ENDBRANCH  23  26
ENDBRANCH   1  23
BRANCH   9  32
ATOM     32  O   UNL d   1     -48.465  28.886  36.487  0.00  0.00    -0.328 OA
ATOM     33  C   UNL d   1     -47.827  29.393  36.632  0.00  0.00     0.181 C 
ENDBRANCH   9  32
TORSDOF 5
ENDMDL
