MODEL 1
REMARK VINA RESULT:      61.7      0.000      0.000
REMARK  8 active torsions:
REMARK  status: ('A' for Active; 'I' for Inactive)
REMARK    1  A    between atoms: C_7  and  C_1 
REMARK    2  A    between atoms: C_2  and  O_5 
REMARK    3  A    between atoms: C_4  and  C_2 
REMARK    4  A    between atoms: O_5  and  C_3 
REMARK    5  A    between atoms: C_6  and  C_7 
REMARK    6  A    between atoms: C_8  and  C_6 
REMARK    7  A    between atoms: C_11  and  C_8 
REMARK    8  A    between atoms: O_22  and  C_18 
ROOT
ATOM      1  C   UNL d   1      60.429  49.386  51.133  0.00  0.00     0.062 A 
ATOM      2  C   UNL d   1      59.638  49.535  51.355  0.00  0.00     0.106 A 
ATOM      3  C   UNL d   1      61.020  49.400  51.707  0.00  0.00     0.012 A 
ATOM      4  C   UNL d   1      59.461  49.693  52.141  0.00  0.00     0.025 A 
ATOM      5  C   UNL d   1      60.835  49.560  52.491  0.00  0.00     0.035 A 
ATOM      6  C   UNL d   1      60.052  49.707  52.711  0.00  0.00     0.009 A 
ATOM      7 BR   UNL d   1      61.430  49.573  53.064  0.00  0.00    -0.049 Br
ENDROOT
BRANCH   1   8
ATOM      8  C   UNL d   1      60.613  49.226  50.345  0.00  0.00     0.198 C 
ATOM      9  O   UNL d   1      60.301  49.703  49.746  0.00  0.00    -0.286 OA
BRANCH   8  10
ATOM     10  C   UNL d   1      61.105  48.595  50.156  0.00  0.00     0.042 C 
BRANCH  10  11
ATOM     11  C   UNL d   1      60.822  47.821  50.201  0.00  0.00     0.005 C 
BRANCH  11  12
ATOM     12  C   UNL d   1      61.304  47.185  49.965  0.00  0.00     0.022 A 
ATOM     13  C   UNL d   1      61.160  46.438  50.314  0.00  0.00     0.094 A 
ATOM     14  C   UNL d   1      61.660  45.806  50.061  0.00  0.00     0.024 A 
ATOM     15  C   UNL d   1      62.255  45.923  49.499  0.00  0.00     0.002 A 
ATOM     16  C   UNL d   1      62.370  46.686  49.171  0.00  0.00     0.000 A 
ATOM     17  C   UNL d   1      61.890  47.314  49.408  0.00  0.00     0.002 A 
BRANCH  13  18
ATOM     18  O   UNL d   1      60.569  46.316  50.874  0.00  0.00    -0.328 OA
ATOM     19  C   UNL d   1      60.473  45.574  51.225  0.00  0.00     0.181 C 
ENDBRANCH  13  18
ENDBRANCH  11  12
ENDBRANCH  10  11
ENDBRANCH   8  10
ENDBRANCH   1   8
BRANCH   2  20
ATOM     20  O   UNL d   1      59.047  49.521  50.786  0.00  0.00    -0.271 OA
BRANCH  20  21
ATOM     21  C   UNL d   1      58.259  49.425  51.017  0.00  0.00     0.323 C 
ATOM     22  O   UNL d   1      58.070  49.230  51.801  0.00  0.00    -0.257 OA
BRANCH  21  23
ATOM     23  C   UNL d   1      57.652  49.523  50.467  0.00  0.00     0.163 A 
ATOM     24  O   UNL d   1      56.855  49.633  50.644  0.00  0.00    -0.300 OA
ATOM     25  C   UNL d   1      56.441  49.707  49.921  0.00  0.00     0.123 A 
ATOM     26  C   UNL d   1      56.987  49.642  49.306  0.00  0.00     0.029 A 
ATOM     27  C   UNL d   1      57.736  49.528  49.643  0.00  0.00     0.032 A 
ENDBRANCH  21  23
ENDBRANCH  20  21
ENDBRANCH   2  20
TORSDOF 8
ENDMDL
