MODEL 1
REMARK VINA RESULT:      -3.0      0.000      0.000
REMARK  4 active torsions:
REMARK  status: ('A' for Active; 'I' for Inactive)
REMARK    1  A    between atoms: C_11  and  N_2 
REMARK    2  A    between atoms: C_9  and  C_3 
REMARK    3  A    between atoms: C_12  and  C_11 
REMARK    4  A    between atoms: O_19  and  C_16 
ROOT
ATOM      1  N   UNL d   1      32.680  20.492 -21.511  0.00  0.00    -0.206 NA
ATOM      2  N   UNL d   1      33.036  21.360 -22.457  0.00  0.00    -0.273 N 
ATOM      3  C   UNL d   1      32.830  21.288 -21.660  0.00  0.00     0.151 A 
ATOM      4  C   UNL d   1      33.012  20.613 -22.797  0.00  0.00     0.185 A 
ATOM      5  C   UNL d   1      32.791  20.070 -22.212  0.00  0.00     0.199 A 
ATOM      6  N   UNL d   1      33.163  20.338 -23.575  0.00  0.00    -0.224 NA
ATOM      7  N   UNL d   1      32.723  19.278 -22.394  0.00  0.00    -0.223 NA
ATOM      8  C   UNL d   1      33.091  19.535 -23.747  0.00  0.00     0.101 A 
ATOM      9  C   UNL d   1      32.870  19.004 -23.155  0.00  0.00     0.101 A 
ATOM     10  C   UNL d   1      33.240  19.267 -24.514  0.00  0.00     0.021 A 
ATOM     11  C   UNL d   1      32.800  18.206 -23.334  0.00  0.00     0.021 A 
ATOM     12  C   UNL d   1      32.946  17.932 -24.091  0.00  0.00     0.002 A 
ATOM     13  C   UNL d   1      33.168  18.464 -24.686  0.00  0.00     0.002 A 
ENDROOT
BRANCH   3  14
ATOM     14  C   UNL d   1      32.786  21.901 -21.122  0.00  0.00     0.035 A 
ATOM     15  C   UNL d   1      32.329  22.550 -21.275  0.00  0.00     0.005 A 
ATOM     16  C   UNL d   1      32.297  23.141 -20.739  0.00  0.00     0.024 A 
ATOM     17  C   UNL d   1      32.726  23.092 -20.032  0.00  0.00     0.094 A 
ATOM     18  C   UNL d   1      33.177  22.454 -19.878  0.00  0.00     0.024 A 
ATOM     19  C   UNL d   1      33.216  21.853 -20.414  0.00  0.00     0.005 A 
BRANCH  17  20
ATOM     20  O   UNL d   1      32.674  23.696 -19.518  0.00  0.00    -0.328 OA
ATOM     21  C   UNL d   1      32.925  23.588 -18.538  0.00  0.00     0.181 C 
ENDBRANCH  17  20
ENDBRANCH   3  14
BRANCH   2  22
ATOM     22  C   UNL d   1      33.232  22.064 -22.847  0.00  0.00     0.083 C 
BRANCH  22  23
ATOM     23  C   UNL d   1      32.944  22.212 -23.603  0.00  0.00     0.019 C 
ATOM     24  C   UNL d   1      33.198  22.875 -24.023  0.00  0.00     0.002 C 
ENDBRANCH  22  23
ENDBRANCH   2  22
TORSDOF 4
ENDMDL
MODEL 2
REMARK VINA RESULT:      -2.6      1.959      3.038
REMARK  4 active torsions:
REMARK  status: ('A' for Active; 'I' for Inactive)
REMARK    1  A    between atoms: C_11  and  N_2 
REMARK    2  A    between atoms: C_9  and  C_3 
REMARK    3  A    between atoms: C_12  and  C_11 
REMARK    4  A    between atoms: O_19  and  C_16 
ROOT
ATOM      1  N   UNL d   1      32.579  23.701 -21.333  0.00  0.00    -0.206 NA
ATOM      2  N   UNL d   1      32.998  22.445 -21.185  0.00  0.00    -0.273 N 
ATOM      3  C   UNL d   1      32.756  23.120 -20.776  0.00  0.00     0.151 A 
ATOM      4  C   UNL d   1      32.971  22.608 -21.989  0.00  0.00     0.185 A 
ATOM      5  C   UNL d   1      32.711  23.388 -22.085  0.00  0.00     0.199 A 
ATOM      6  N   UNL d   1      33.150  22.148 -22.667  0.00  0.00    -0.224 NA
ATOM      7  N   UNL d   1      32.630  23.702 -22.834  0.00  0.00    -0.223 NA
ATOM      8  C   UNL d   1      33.064  22.477 -23.419  0.00  0.00     0.101 A 
ATOM      9  C   UNL d   1      32.804  23.256 -23.501  0.00  0.00     0.101 A 
ATOM     10  C   UNL d   1      33.241  22.022 -24.085  0.00  0.00     0.021 A 
ATOM     11  C   UNL d   1      32.722  23.577 -24.252  0.00  0.00     0.021 A 
ATOM     12  C   UNL d   1      32.894  23.133 -24.918  0.00  0.00     0.002 A 
ATOM     13  C   UNL d   1      33.156  22.351 -24.837  0.00  0.00     0.002 A 
ENDROOT
BRANCH   3  14
ATOM     14  C   UNL d   1      32.704  23.193 -19.963  0.00  0.00     0.035 A 
ATOM     15  C   UNL d   1      33.240  23.640 -19.555  0.00  0.00     0.005 A 
ATOM     16  C   UNL d   1      33.175  23.701 -18.762  0.00  0.00     0.024 A 
ATOM     17  C   UNL d   1      32.565  23.311 -18.358  0.00  0.00     0.094 A 
ATOM     18  C   UNL d   1      32.036  22.870 -18.757  0.00  0.00     0.024 A 
ATOM     19  C   UNL d   1      32.094  22.803 -19.559  0.00  0.00     0.005 A 
BRANCH  17  20
ATOM     20  O   UNL d   1      32.527  23.390 -17.568  0.00  0.00    -0.328 OA
ATOM     21  C   UNL d   1      33.006  22.748 -16.942  0.00  0.00     0.181 C 
ENDBRANCH  17  20
ENDBRANCH   3  14
BRANCH   2  22
ATOM     22  C   UNL d   1      33.229  21.726 -20.843  0.00  0.00     0.083 C 
BRANCH  22  23
ATOM     23  C   UNL d   1      32.974  21.014 -21.165  0.00  0.00     0.019 C 
ATOM     24  C   UNL d   1      33.137  20.301 -20.783  0.00  0.00     0.002 C 
ENDBRANCH  22  23
ENDBRANCH   2  22
TORSDOF 4
ENDMDL
MODEL 3
REMARK VINA RESULT:      -0.7      1.106      1.821
REMARK  4 active torsions:
REMARK  status: ('A' for Active; 'I' for Inactive)
REMARK    1  A    between atoms: C_11  and  N_2 
REMARK    2  A    between atoms: C_9  and  C_3 
REMARK    3  A    between atoms: C_12  and  C_11 
REMARK    4  A    between atoms: O_19  and  C_16 
ROOT
ATOM      1  N   UNL d   1      32.887  19.030 -22.058  0.00  0.00    -0.206 NA
ATOM      2  N   UNL d   1      33.105  19.784 -23.135  0.00  0.00    -0.273 N 
ATOM      3  C   UNL d   1      33.009  19.803 -22.315  0.00  0.00     0.151 A 
ATOM      4  C   UNL d   1      33.041  19.004 -23.382  0.00  0.00     0.185 A 
ATOM      5  C   UNL d   1      32.905  18.532 -22.716  0.00  0.00     0.199 A 
ATOM      6  N   UNL d   1      33.088  18.643 -24.138  0.00  0.00    -0.224 NA
ATOM      7  N   UNL d   1      32.819  17.724 -22.798  0.00  0.00    -0.223 NA
ATOM      8  C   UNL d   1      32.999  17.826 -24.208  0.00  0.00     0.101 A 
ATOM      9  C   UNL d   1      32.864  17.367 -23.536  0.00  0.00     0.101 A 
ATOM     10  C   UNL d   1      33.045  17.473 -24.953  0.00  0.00     0.021 A 
ATOM     11  C   UNL d   1      32.776  16.554 -23.613  0.00  0.00     0.021 A 
ATOM     12  C   UNL d   1      32.821  16.196 -24.347  0.00  0.00     0.002 A 
ATOM     13  C   UNL d   1      32.956  16.656 -25.023  0.00  0.00     0.002 A 
ENDROOT
BRANCH   3  14
ATOM     14  C   UNL d   1      33.034  20.474 -21.847  0.00  0.00     0.035 A 
ATOM     15  C   UNL d   1      33.219  20.420 -21.062  0.00  0.00     0.005 A 
ATOM     16  C   UNL d   1      33.239  21.084 -20.619  0.00  0.00     0.024 A 
ATOM     17  C   UNL d   1      33.071  21.822 -20.958  0.00  0.00     0.094 A 
ATOM     18  C   UNL d   1      32.889  21.877 -21.731  0.00  0.00     0.024 A 
ATOM     19  C   UNL d   1      32.867  21.212 -22.186  0.00  0.00     0.005 A 
BRANCH  17  20
ATOM     20  O   UNL d   1      33.099  22.464 -20.492  0.00  0.00    -0.328 OA
ATOM     21  C   UNL d   1      32.321  23.118 -20.434  0.00  0.00     0.181 C 
ENDBRANCH  17  20
ENDBRANCH   3  14
BRANCH   2  22
ATOM     22  C   UNL d   1      33.241  20.439 -23.624  0.00  0.00     0.083 C 
BRANCH  22  23
ATOM     23  C   UNL d   1      32.875  20.489 -24.358  0.00  0.00     0.019 C 
ATOM     24  C   UNL d   1      33.201  20.957 -24.955  0.00  0.00     0.002 C 
ENDBRANCH  22  23
ENDBRANCH   2  22
TORSDOF 4
ENDMDL
