MODEL 1
REMARK VINA RESULT:      62.7      0.000      0.000
REMARK  7 active torsions:
REMARK  status: ('A' for Active; 'I' for Inactive)
REMARK    1  A    between atoms: C_7  and  C_1 
REMARK    2  A    between atoms: C_9  and  N_2 
REMARK    3  A    between atoms: C_6  and  C_3 
REMARK    4  A    between atoms: C_8  and  C_7 
REMARK    5  A    between atoms: C_20  and  C_9 
REMARK    6  A    between atoms: O_24  and  C_10 
REMARK    7  A    between atoms: O_26  and  C_22 
ROOT
ATOM      1  C   UNL d   1      14.576  14.473  -1.982  0.00  0.00     0.101 A 
ATOM      2  N   UNL d   1      13.716  13.640  -2.564  0.00  0.00    -0.270 N 
ATOM      3  C   UNL d   1      14.264  13.712  -1.965  0.00  0.00     0.075 A 
ATOM      4  C   UNL d   1      14.212  14.881  -2.608  0.00  0.00     0.256 A 
ATOM      5  C   UNL d   1      13.680  14.366  -2.968  0.00  0.00     0.304 A 
ATOM      6  O   UNL d   1      13.197  14.542  -3.615  0.00  0.00    -0.263 OA
ATOM      7  O   UNL d   1      14.355  15.663  -2.831  0.00  0.00    -0.281 OA
ENDROOT
BRANCH   3   8
ATOM      8  C   UNL d   1      14.483  13.125  -1.419  0.00  0.00     0.041 A 
ATOM      9  C   UNL d   1      13.960  12.925  -0.817  0.00  0.00     0.096 A 
ATOM     10  C   UNL d   1      14.168  12.339  -0.265  0.00  0.00     0.026 A 
ATOM     11  C   UNL d   1      14.905  11.961  -0.329  0.00  0.00     0.026 A 
ATOM     12  C   UNL d   1      15.428  12.167  -0.937  0.00  0.00     0.094 A 
ATOM     13  C   UNL d   1      15.216  12.748  -1.480  0.00  0.00     0.028 A 
BRANCH   9  14
ATOM     14  O   UNL d   1      13.232  13.297  -0.754  0.00  0.00    -0.328 OA
ATOM     15  C   UNL d   1      12.913  13.479  -0.015  0.00  0.00     0.181 C 
ENDBRANCH   9  14
BRANCH  12  16
ATOM     16  O   UNL d   1      16.163  11.790  -1.000  0.00  0.00    -0.328 OA
ATOM     17  C   UNL d   1      16.680  11.790  -0.349  0.00  0.00     0.181 C 
ENDBRANCH  12  16
ENDBRANCH   3   8
BRANCH   2  18
ATOM     18  C   UNL d   1      13.268  12.962  -2.746  0.00  0.00     0.085 C 
BRANCH  18  19
ATOM     19  C   UNL d   1      13.119  12.769  -3.536  0.00  0.00     0.037 A 
ATOM     20  C   UNL d   1      13.164  11.973  -3.778  0.00  0.00     0.100 A 
ATOM     21  N   UNL d   1      13.016  11.781  -4.562  0.00  0.00    -0.242 NA
ATOM     22  C   UNL d   1      12.823  12.367  -5.109  0.00  0.00     0.099 A 
ATOM     23  C   UNL d   1      12.779  13.153  -4.865  0.00  0.00     0.021 A 
ATOM     24  C   UNL d   1      12.927  13.353  -4.076  0.00  0.00     0.005 A 
ENDBRANCH  18  19
ENDBRANCH   2  18
BRANCH   1  25
ATOM     25  C   UNL d   1      15.151  14.785  -1.472  0.00  0.00     0.223 C 
ATOM     26  O   UNL d   1      15.775  14.313  -1.221  0.00  0.00    -0.284 OA
BRANCH  25  27
ATOM     27  C   UNL d   1      15.093  15.560  -1.222  0.00  0.00     0.139 A 
ATOM     28  O   UNL d   1      14.627  16.203  -1.442  0.00  0.00    -0.302 OA
ATOM     29  C   UNL d   1      14.837  16.846  -0.972  0.00  0.00     0.123 A 
ATOM     30  C   UNL d   1      15.429  16.603  -0.464  0.00  0.00     0.029 A 
ATOM     31  C   UNL d   1      15.588  15.810  -0.618  0.00  0.00     0.030 A 
ENDBRANCH  25  27
ENDBRANCH   1  25
TORSDOF 7
ENDMDL
