MODEL 1
REMARK VINA RESULT:       5.4      0.000      0.000
REMARK  4 active torsions:
REMARK  status: ('A' for Active; 'I' for Inactive)
REMARK    1  A    between atoms: N_6  and  C_1 
REMARK    2  A    between atoms: C_10  and  C_2 
REMARK       I    between atoms: C_9  and  N_6 
REMARK    3  A    between atoms: C_11  and  C_9 
REMARK    4  A    between atoms: O_20  and  C_10 
ROOT
ATOM      1  C   UNL d   1     -41.242-122.062 -52.700  0.00  0.00     0.119 A 
ATOM      2  C   UNL d   1     -41.203-121.472 -52.126  0.00  0.00     0.087 A 
ATOM      3  C   UNL d   1     -41.193-121.839 -51.393  0.00  0.00     0.008 A 
ATOM      4  C   UNL d   1     -41.225-122.645 -51.504  0.00  0.00     0.028 A 
ATOM      5  S   UNL d   1     -41.256-122.793 -52.316  0.00  0.00    -0.070 SA
ATOM      6  C   UNL d   1     -41.223-123.160 -50.854  0.00  0.00     0.104 A 
ATOM      7  N   UNL d   1     -41.188-122.854 -50.091  0.00  0.00    -0.294 NA
ATOM      8  C   UNL d   1     -41.155-122.035 -49.979  0.00  0.00     0.099 A 
ATOM      9  C   UNL d   1     -41.158-121.523 -50.629  0.00  0.00    -0.004 A 
ATOM     10  C   UNL d   1     -41.230-123.815 -50.350  0.00  0.00     0.029 C 
ATOM     11  C   UNL d   1     -41.261-123.654 -51.512  0.00  0.00     0.029 C 
ATOM     12  C   UNL d   1     -41.123-121.216 -49.866  0.00  0.00     0.029 C 
ATOM     13  C   UNL d   1     -41.152-122.538 -49.328  0.00  0.00     0.029 C 
ENDROOT
BRANCH   1  14
ATOM     14  N   UNL d   1     -41.264-121.948 -53.519  0.00  0.00    -0.200 NA
ATOM     15  C   UNL d   1     -41.856-122.306 -53.970  0.00  0.00     0.302 C 
ATOM     16  O   UNL d   1     -42.425-122.776 -53.602  0.00  0.00    -0.263 OA
BRANCH  15  17
ATOM     17  C   UNL d   1     -41.877-122.192 -54.784  0.00  0.00     0.158 A 
ATOM     18  O   UNL d   1     -41.234-122.176 -55.292  0.00  0.00    -0.300 OA
ATOM     19  C   UNL d   1     -41.525-122.046 -56.068  0.00  0.00     0.123 A 
ATOM     20  C   UNL d   1     -42.336-121.985 -56.025  0.00  0.00     0.029 A 
ATOM     21  C   UNL d   1     -42.577-122.074 -55.234  0.00  0.00     0.032 A 
ENDBRANCH  15  17
ENDBRANCH   1  14
BRANCH   2  22
ATOM     22  C   UNL d   1     -41.180-120.667 -52.277  0.00  0.00     0.298 C 
ATOM     23  O   UNL d   1     -41.130-120.407 -53.061  0.00  0.00    -0.259 OA
BRANCH  22  24
ATOM     24  O   UNL d   1     -41.205-120.118 -51.651  0.00  0.00    -0.296 OA
ATOM     25  C   UNL d   1     -41.193-119.312 -51.811  0.00  0.00     0.185 C 
ENDBRANCH  22  24
ENDBRANCH   2  22
TORSDOF 4
ENDMDL
MODEL 2
REMARK VINA RESULT:       8.1      2.326      4.760
REMARK  4 active torsions:
REMARK  status: ('A' for Active; 'I' for Inactive)
REMARK    1  A    between atoms: N_6  and  C_1 
REMARK    2  A    between atoms: C_10  and  C_2 
REMARK       I    between atoms: C_9  and  N_6 
REMARK    3  A    between atoms: C_11  and  C_9 
REMARK    4  A    between atoms: O_20  and  C_10 
ROOT
ATOM      1  C   UNL d   1     -42.452-122.893 -50.154  0.00  0.00     0.119 A 
ATOM      2  C   UNL d   1     -42.958-122.412 -50.591  0.00  0.00     0.087 A 
ATOM      3  C   UNL d   1     -42.692-122.411 -51.367  0.00  0.00     0.008 A 
ATOM      4  C   UNL d   1     -42.030-122.882 -51.416  0.00  0.00     0.028 A 
ATOM      5  S   UNL d   1     -41.873-123.188 -50.664  0.00  0.00    -0.070 SA
ATOM      6  C   UNL d   1     -41.639-122.986 -52.140  0.00  0.00     0.104 A 
ATOM      7  N   UNL d   1     -41.922-122.607 -52.814  0.00  0.00    -0.294 NA
ATOM      8  C   UNL d   1     -42.595-122.128 -52.763  0.00  0.00     0.099 A 
ATOM      9  C   UNL d   1     -42.983-122.027 -52.040  0.00  0.00    -0.004 A 
ATOM     10  C   UNL d   1     -41.127-123.205 -52.751  0.00  0.00     0.029 C 
ATOM     11  C   UNL d   1     -41.207-123.438 -51.603  0.00  0.00     0.029 C 
ATOM     12  C   UNL d   1     -43.267-121.649 -52.713  0.00  0.00     0.029 C 
ATOM     13  C   UNL d   1     -42.214-122.224 -53.486  0.00  0.00     0.029 C 
ENDROOT
BRANCH   1  14
ATOM     14  N   UNL d   1     -42.508-123.057 -49.346  0.00  0.00    -0.200 NA
ATOM     15  C   UNL d   1     -41.844-122.982 -48.862  0.00  0.00     0.302 C 
ATOM     16  O   UNL d   1     -41.123-122.744 -49.186  0.00  0.00    -0.263 OA
BRANCH  15  17
ATOM     17  C   UNL d   1     -41.900-123.145 -48.057  0.00  0.00     0.158 A 
ATOM     18  O   UNL d   1     -42.283-122.690 -47.493  0.00  0.00    -0.300 OA
ATOM     19  C   UNL d   1     -42.193-123.074 -46.752  0.00  0.00     0.123 A 
ATOM     20  C   UNL d   1     -41.759-123.752 -46.873  0.00  0.00     0.029 A 
ATOM     21  C   UNL d   1     -41.566-123.816 -47.679  0.00  0.00     0.032 A 
ENDBRANCH  15  17
ENDBRANCH   1  14
BRANCH   2  22
ATOM     22  C   UNL d   1     -43.607-122.013 -50.291  0.00  0.00     0.298 C 
ATOM     23  O   UNL d   1     -43.486-121.310 -49.872  0.00  0.00    -0.259 OA
BRANCH  22  24
ATOM     24  O   UNL d   1     -44.377-122.310 -50.404  0.00  0.00    -0.296 OA
ATOM     25  C   UNL d   1     -45.021-121.915 -50.081  0.00  0.00     0.185 C 
ENDBRANCH  22  24
ENDBRANCH   2  22
TORSDOF 4
ENDMDL
