MODEL 1
REMARK VINA RESULT:      50.3      0.000      0.000
REMARK  4 active torsions:
REMARK  status: ('A' for Active; 'I' for Inactive)
REMARK    1  A    between atoms: N_6  and  C_2 
REMARK    2  A    between atoms: N_8  and  C_3 
REMARK    3  A    between atoms: C_10  and  N_8 
REMARK    4  A    between atoms: C_14  and  C_10 
ROOT
ATOM      1  N   UNL d   1     -58.136 -99.015 -44.717  0.00  0.00    -0.041 NA
ATOM      2  C   UNL d   1     -57.501 -99.096 -44.182  0.00  0.00     0.737 A 
ATOM      3  C   UNL d   1     -58.907 -98.910 -44.431  0.00  0.00     0.182 A 
ATOM      4  N   UNL d   1     -57.643 -99.072 -43.360  0.00  0.00    -0.060 NA
ATOM      5  C   UNL d   1     -59.047 -98.886 -43.613  0.00  0.00     0.055 A 
ATOM      6  C   UNL d   1     -58.422 -98.966 -43.081  0.00  0.00     0.103 A 
ATOM      7  C   UNL d   1     -59.820 -98.781 -43.327  0.00  0.00     0.005 A 
ATOM      8  C   UNL d   1     -58.563 -98.942 -42.256  0.00  0.00     0.020 A 
ATOM      9  C   UNL d   1     -59.961 -98.757 -42.522  0.00  0.00     0.000 A 
ATOM     10  C   UNL d   1     -59.328 -98.839 -41.983  0.00  0.00     0.002 A 
ENDROOT
BRANCH   3  11
ATOM     11  N   UNL d   1     -59.567 -98.825 -44.981  0.00  0.00    -0.225 NA
BRANCH  11  12
ATOM     12  C   UNL d   1     -59.817 -99.391 -45.423  0.00  0.00     0.101 C 
BRANCH  12  13
ATOM     13  C   UNL d   1     -59.699 -99.363 -46.176  0.00  0.00     0.019 A 
ATOM     14  C   UNL d   1     -59.327 -98.782 -46.472  0.00  0.00     0.002 A 
ATOM     15  C   UNL d   1     -59.211 -98.756 -47.220  0.00  0.00     0.000 A 
ATOM     16  C   UNL d   1     -59.469 -99.313 -47.666  0.00  0.00     0.000 A 
ATOM     17  C   UNL d   1     -59.848 -99.900 -47.351  0.00  0.00     0.000 A 
ATOM     18  C   UNL d   1     -59.959 -99.918 -46.607  0.00  0.00     0.002 A 
ENDBRANCH  12  13
ENDBRANCH  11  12
ENDBRANCH   3  11
BRANCH   2  19
ATOM     19  N   UNL d   1     -56.703 -99.204 -44.478  0.00  0.00    -0.133 N 
ATOM     20  C   UNL d   1     -56.439 -98.755 -45.159  0.00  0.00     0.125 A 
ATOM     21  C   UNL d   1     -55.650 -98.859 -45.456  0.00  0.00     0.142 A 
ATOM     22  O   UNL d   1     -55.122 -99.407 -45.077  0.00  0.00    -0.300 OA
ATOM     23  C   UNL d   1     -55.387 -99.856 -44.395  0.00  0.00     0.142 A 
ATOM     24  C   UNL d   1     -56.178 -99.754 -44.096  0.00  0.00     0.125 A 
ENDBRANCH   2  19
TORSDOF 4
ENDMDL
