MODEL 1
REMARK VINA RESULT:      -7.6      0.000      0.000
REMARK  5 active torsions:
REMARK  status: ('A' for Active; 'I' for Inactive)
REMARK    1  A    between atoms: C_2  and  S_1 
REMARK    2  A    between atoms: N_4  and  S_1 
REMARK    3  A    between atoms: C_11  and  N_4 
REMARK    4  A    between atoms: O_13  and  C_5 
REMARK    5  A    between atoms: O_14  and  C_6 
ROOT
ATOM      1  C   UNL d   1      52.129  33.581  53.151  0.00  0.00     0.141 A 
ATOM      2  C   UNL d   1      52.319  32.806  52.938  0.00  0.00     0.040 A 
ATOM      3  C   UNL d   1      52.655  34.022  53.587  0.00  0.00     0.107 A 
ATOM      4  C   UNL d   1      53.034  32.479  53.162  0.00  0.00     0.095 A 
ATOM      5  C   UNL d   1      53.375  33.704  53.818  0.00  0.00     0.027 A 
ATOM      6  C   UNL d   1      53.566  32.929  53.605  0.00  0.00     0.024 A 
ATOM      7  C   UNL d   1      54.296  32.603  53.837  0.00  0.00     0.002 C 
ENDROOT
BRANCH   1   8
ATOM      8  S   UNL d   1      51.407  33.899  52.920  0.00  0.00     0.329 S 
ATOM      9  O   UNL d   1      51.047  33.550  53.570  0.00  0.00    -0.186 OA
ATOM     10  O   UNL d   1      51.757  34.251  52.271  0.00  0.00    -0.186 OA
BRANCH   8  11
ATOM     11  N   UNL d   1      50.680  34.215  52.695  0.00  0.00    -0.316 NA
BRANCH  11  12
ATOM     12  C   UNL d   1      49.948  34.529  52.463  0.00  0.00     0.165 A 
ATOM     13  C   UNL d   1      49.514  34.980  52.990  0.00  0.00     0.132 A 
ATOM     14  N   UNL d   1      48.783  35.293  52.757  0.00  0.00    -0.240 NA
ATOM     15  C   UNL d   1      48.490  35.154  51.999  0.00  0.00     0.099 A 
ATOM     16  C   UNL d   1      48.934  34.697  51.471  0.00  0.00     0.023 A 
ATOM     17  C   UNL d   1      49.662  34.382  51.694  0.00  0.00     0.036 A 
ENDBRANCH  11  12
ENDBRANCH   8  11
ENDBRANCH   1   8
BRANCH   3  18
ATOM     18  O   UNL d   1      52.464  34.798  53.801  0.00  0.00    -0.327 OA
ATOM     19  C   UNL d   1      53.001  35.246  54.250  0.00  0.00     0.181 C 
ENDBRANCH   3  18
BRANCH   4  20
ATOM     20  O   UNL d   1      53.225  31.704  52.949  0.00  0.00    -0.328 OA
ATOM     21  C   UNL d   1      52.643  31.119  52.952  0.00  0.00     0.181 C 
ENDBRANCH   4  20
TORSDOF 5
ENDMDL
MODEL 2
REMARK VINA RESULT:      -7.5      2.113      4.109
REMARK  5 active torsions:
REMARK  status: ('A' for Active; 'I' for Inactive)
REMARK    1  A    between atoms: C_2  and  S_1 
REMARK    2  A    between atoms: N_4  and  S_1 
REMARK    3  A    between atoms: C_11  and  N_4 
REMARK    4  A    between atoms: O_13  and  C_5 
REMARK    5  A    between atoms: O_14  and  C_6 
ROOT
ATOM      1  C   UNL d   1      53.169  33.179  53.795  0.00  0.00     0.141 A 
ATOM      2  C   UNL d   1      52.642  33.636  53.354  0.00  0.00     0.040 A 
ATOM      3  C   UNL d   1      53.691  33.539  54.304  0.00  0.00     0.107 A 
ATOM      4  C   UNL d   1      52.640  34.451  53.425  0.00  0.00     0.095 A 
ATOM      5  C   UNL d   1      53.698  34.356  54.384  0.00  0.00     0.027 A 
ATOM      6  C   UNL d   1      53.171  34.814  53.943  0.00  0.00     0.024 A 
ATOM      7  C   UNL d   1      53.176  35.642  54.021  0.00  0.00     0.002 C 
ENDROOT
BRANCH   1   8
ATOM      8  S   UNL d   1      53.161  32.361  53.714  0.00  0.00     0.329 S 
ATOM      9  O   UNL d   1      52.576  32.311  54.288  0.00  0.00    -0.186 OA
ATOM     10  O   UNL d   1      53.743  32.399  53.142  0.00  0.00    -0.186 OA
BRANCH   8  11
ATOM     11  N   UNL d   1      53.147  31.540  53.640  0.00  0.00    -0.316 NA
BRANCH  11  12
ATOM     12  C   UNL d   1      53.126  30.714  53.565  0.00  0.00     0.165 A 
ATOM     13  C   UNL d   1      52.718  30.373  52.943  0.00  0.00     0.132 A 
ATOM     14  N   UNL d   1      52.697  29.548  52.869  0.00  0.00    -0.240 NA
ATOM     15  C   UNL d   1      53.085  29.068  53.417  0.00  0.00     0.099 A 
ATOM     16  C   UNL d   1      53.496  29.420  54.043  0.00  0.00     0.023 A 
ATOM     17  C   UNL d   1      53.521  30.240  54.124  0.00  0.00     0.036 A 
ENDBRANCH  11  12
ENDBRANCH   8  11
ENDBRANCH   1   8
BRANCH   3  18
ATOM     18  O   UNL d   1      54.219  33.081  54.745  0.00  0.00    -0.327 OA
ATOM     19  C   UNL d   1      54.765  33.452  55.251  0.00  0.00     0.181 C 
ENDBRANCH   3  18
BRANCH   4  20
ATOM     20  O   UNL d   1      52.113  34.908  52.984  0.00  0.00    -0.328 OA
ATOM     21  C   UNL d   1      51.497  34.547  52.570  0.00  0.00     0.181 C 
ENDBRANCH   4  20
TORSDOF 5
ENDMDL
MODEL 3
REMARK VINA RESULT:      -7.2      0.719      1.905
REMARK  5 active torsions:
REMARK  status: ('A' for Active; 'I' for Inactive)
REMARK    1  A    between atoms: C_2  and  S_1 
REMARK    2  A    between atoms: N_4  and  S_1 
REMARK    3  A    between atoms: C_11  and  N_4 
REMARK    4  A    between atoms: O_13  and  C_5 
REMARK    5  A    between atoms: O_14  and  C_6 
ROOT
ATOM      1  C   UNL d   1      52.411  33.665  53.553  0.00  0.00     0.141 A 
ATOM      2  C   UNL d   1      52.769  34.196  54.074  0.00  0.00     0.040 A 
ATOM      3  C   UNL d   1      52.752  32.939  53.417  0.00  0.00     0.107 A 
ATOM      4  C   UNL d   1      53.464  33.998  54.455  0.00  0.00     0.095 A 
ATOM      5  C   UNL d   1      53.450  32.729  53.794  0.00  0.00     0.027 A 
ATOM      6  C   UNL d   1      53.807  33.260  54.316  0.00  0.00     0.024 A 
ATOM      7  C   UNL d   1      54.515  33.050  54.700  0.00  0.00     0.002 C 
ENDROOT
BRANCH   1   8
ATOM      8  S   UNL d   1      51.712  33.876  53.175  0.00  0.00     0.329 S 
ATOM      9  O   UNL d   1      52.143  34.298  52.618  0.00  0.00    -0.186 OA
ATOM     10  O   UNL d   1      51.275  33.458  53.725  0.00  0.00    -0.186 OA
BRANCH   8  11
ATOM     11  N   UNL d   1      51.016  34.092  52.790  0.00  0.00    -0.316 NA
BRANCH  11  12
ATOM     12  C   UNL d   1      50.314  34.314  52.408  0.00  0.00     0.165 A 
ATOM     13  C   UNL d   1      49.742  34.730  52.818  0.00  0.00     0.132 A 
ATOM     14  N   UNL d   1      49.042  34.952  52.435  0.00  0.00    -0.240 NA
ATOM     15  C   UNL d   1      48.918  34.757  51.643  0.00  0.00     0.099 A 
ATOM     16  C   UNL d   1      49.501  34.336  51.234  0.00  0.00     0.023 A 
ATOM     17  C   UNL d   1      50.200  34.111  51.608  0.00  0.00     0.036 A 
ENDBRANCH  11  12
ENDBRANCH   8  11
ENDBRANCH   1   8
BRANCH   3  18
ATOM     18  O   UNL d   1      52.394  32.407  52.895  0.00  0.00    -0.327 OA
ATOM     19  C   UNL d   1      52.687  31.631  52.830  0.00  0.00     0.181 C 
ENDBRANCH   3  18
BRANCH   4  20
ATOM     20  O   UNL d   1      53.821  34.529  54.977  0.00  0.00    -0.328 OA
ATOM     21  C   UNL d   1      53.408  35.194  55.238  0.00  0.00     0.181 C 
ENDBRANCH   4  20
TORSDOF 5
ENDMDL
MODEL 4
REMARK VINA RESULT:      -6.1      2.819      4.292
REMARK  5 active torsions:
REMARK  status: ('A' for Active; 'I' for Inactive)
REMARK    1  A    between atoms: C_2  and  S_1 
REMARK    2  A    between atoms: N_4  and  S_1 
REMARK    3  A    between atoms: C_11  and  N_4 
REMARK    4  A    between atoms: O_13  and  C_5 
REMARK    5  A    between atoms: O_14  and  C_6 
ROOT
ATOM      1  C   UNL d   1      53.397  31.297  53.716  0.00  0.00     0.141 A 
ATOM      2  C   UNL d   1      53.633  30.567  54.022  0.00  0.00     0.040 A 
ATOM      3  C   UNL d   1      52.859  31.326  53.107  0.00  0.00     0.107 A 
ATOM      4  C   UNL d   1      53.329  29.872  53.716  0.00  0.00     0.095 A 
ATOM      5  C   UNL d   1      52.547  30.635  52.792  0.00  0.00     0.027 A 
ATOM      6  C   UNL d   1      52.783  29.905  53.098  0.00  0.00     0.024 A 
ATOM      7  C   UNL d   1      52.469  29.202  52.781  0.00  0.00     0.002 C 
ENDROOT
BRANCH   1   8
ATOM      8  S   UNL d   1      53.709  31.988  54.032  0.00  0.00     0.329 S 
ATOM      9  O   UNL d   1      53.141  31.972  54.625  0.00  0.00    -0.186 OA
ATOM     10  O   UNL d   1      54.278  32.013  53.446  0.00  0.00    -0.186 OA
BRANCH   8  11
ATOM     11  N   UNL d   1      54.016  32.682  54.355  0.00  0.00    -0.316 NA
BRANCH  11  12
ATOM     12  C   UNL d   1      54.322  33.379  54.685  0.00  0.00     0.165 A 
ATOM     13  C   UNL d   1      53.841  34.036  54.761  0.00  0.00     0.132 A 
ATOM     14  N   UNL d   1      54.147  34.733  55.091  0.00  0.00    -0.240 NA
ATOM     15  C   UNL d   1      54.932  34.767  55.343  0.00  0.00     0.099 A 
ATOM     16  C   UNL d   1      55.411  34.098  55.263  0.00  0.00     0.023 A 
ATOM     17  C   UNL d   1      55.115  33.402  54.937  0.00  0.00     0.036 A 
ENDBRANCH  11  12
ENDBRANCH   8  11
ENDBRANCH   1   8
BRANCH   3  18
ATOM     18  O   UNL d   1      52.623  32.057  52.801  0.00  0.00    -0.327 OA
ATOM     19  C   UNL d   1      51.878  32.131  52.437  0.00  0.00     0.181 C 
ENDBRANCH   3  18
BRANCH   4  20
ATOM     20  O   UNL d   1      53.565  29.142  54.022  0.00  0.00    -0.328 OA
ATOM     21  C   UNL d   1      53.385  28.942  54.803  0.00  0.00     0.181 C 
ENDBRANCH   4  20
TORSDOF 5
ENDMDL
