MODEL 1
REMARK VINA RESULT:      76.5      0.000      0.000
REMARK  5 active torsions:
REMARK  status: ('A' for Active; 'I' for Inactive)
REMARK    1  A    between atoms: N_5  and  S_1 
REMARK    2  A    between atoms: C_9  and  S_1 
REMARK    3  A    between atoms: C_2  and  N_4 
REMARK    4  A    between atoms: C_7  and  C_3 
REMARK       I    between atoms: N_4  and  C_6 
REMARK    5  A    between atoms: C_6  and  C_14 
ROOT
ATOM      1  C   UNL d   1     -55.027-101.344 -42.082  0.00  0.00     0.104 A 
ATOM      2  C   UNL d   1     -55.147-101.671 -40.468  0.00  0.00     0.058 A 
ATOM      3  C   UNL d   1     -54.949-100.736 -41.527  0.00  0.00     0.013 A 
ATOM      4  C   UNL d   1     -55.165-102.112 -41.825  0.00  0.00     0.013 A 
ATOM      5  C   UNL d   1     -55.009-100.903 -40.724  0.00  0.00     0.005 A 
ATOM      6  C   UNL d   1     -55.225-102.279 -41.024  0.00  0.00     0.005 A 
ENDROOT
BRANCH   2   7
ATOM      7  C   UNL d   1     -55.207-101.837 -39.658  0.00  0.00     0.280 C 
ATOM      8  N   UNL d   1     -55.764-102.382 -39.389  0.00  0.00    -0.201 NA
ATOM      9  O   UNL d   1     -54.711-101.457 -39.138  0.00  0.00    -0.265 OA
BRANCH   8  10
ATOM     10  C   UNL d   1     -55.820-102.543 -38.585  0.00  0.00     0.119 A 
ATOM     11  C   UNL d   1     -56.509-102.503 -38.129  0.00  0.00     0.084 A 
ATOM     12  C   UNL d   1     -56.310-102.710 -37.348  0.00  0.00     0.014 A 
ATOM     13  C   UNL d   1     -55.502-102.875 -37.330  0.00  0.00     0.037 A 
ATOM     14  S   UNL d   1     -55.206-102.771 -38.091  0.00  0.00    -0.067 SA
BRANCH  11  15
ATOM     15  C   UNL d   1     -57.260-102.296 -38.392  0.00  0.00     0.299 C 
ATOM     16  O   UNL d   1     -57.723-102.860 -38.785  0.00  0.00    -0.264 OA
ATOM     17  N   UNL d   1     -57.552-101.535 -38.267  0.00  0.00    -0.102 N 
ENDBRANCH  11  15
ENDBRANCH   8  10
ENDBRANCH   2   7
BRANCH   1  18
ATOM     18  S   UNL d   1     -54.967-101.177 -42.884  0.00  0.00     0.271 S 
ATOM     19  O   UNL d   1     -54.941-101.988 -43.053  0.00  0.00    -0.200 OA
ATOM     20  O   UNL d   1     -54.993-100.373 -42.718  0.00  0.00    -0.200 OA
BRANCH  18  21
ATOM     21  N   UNL d   1     -54.906-101.008 -43.689  0.00  0.00    -0.229 N 
ATOM     22  C   UNL d   1     -54.878-100.226 -43.946  0.00  0.00     0.092 A 
ATOM     23  C   UNL d   1     -54.817-100.057 -44.756  0.00  0.00     0.020 A 
ATOM     24  C   UNL d   1     -54.785-100.670 -45.299  0.00  0.00     0.003 A 
ATOM     25  C   UNL d   1     -54.814-101.456 -45.045  0.00  0.00     0.020 A 
ATOM     26  C   UNL d   1     -54.874-101.626 -44.244  0.00  0.00     0.092 A 
ENDBRANCH  18  21
ENDBRANCH   1  18
TORSDOF 5
ENDMDL
