MODEL 1
REMARK VINA RESULT:      17.1      0.000      0.000
REMARK  2 active torsions:
REMARK  status: ('A' for Active; 'I' for Inactive)
REMARK    1  A    between atoms: C_7  and  C_1 
REMARK    2  A    between atoms: C_11  and  C_7 
ROOT
ATOM      1  C   UNL d   1      43.252 -15.570  37.225  0.00  0.00     0.116 A 
ATOM      2  N   UNL d   1      42.089 -14.747  37.218  0.00  0.00    -0.152 NA
ATOM      3  N   UNL d   1      42.178 -15.858  36.331  0.00  0.00    -0.152 NA
ATOM      4  C   UNL d   1      42.926 -16.041  36.629  0.00  0.00     0.288 A 
ATOM      5  C   UNL d   1      42.835 -14.927  37.518  0.00  0.00     0.288 A 
ATOM      6  C   UNL d   1      41.761 -15.215  36.624  0.00  0.00     0.374 A 
ATOM      7  O   UNL d   1      43.162 -14.441  38.128  0.00  0.00    -0.265 OA
ATOM      8  O   UNL d   1      43.344 -16.686  36.335  0.00  0.00    -0.265 OA
ATOM      9  O   UNL d   1      41.007 -15.018  36.333  0.00  0.00    -0.242 OA
ENDROOT
BRANCH   1  10
ATOM     10  C   UNL d   1      44.010 -15.751  37.531  0.00  0.00     0.010 C 
BRANCH  10  11
ATOM     11  C   UNL d   1      44.670 -15.328  37.270  0.00  0.00     0.001 A 
ATOM     12  C   UNL d   1      45.280 -15.713  36.879  0.00  0.00     0.003 A 
ATOM     13  C   UNL d   1      45.937 -15.289  36.619  0.00  0.00     0.042 A 
ATOM     14  C   UNL d   1      45.978 -14.483  36.755  0.00  0.00     0.196 A 
ATOM     15  C   UNL d   1      45.369 -14.098  37.146  0.00  0.00     0.042 A 
ATOM     16  O   UNL d   1      46.645 -14.042  36.493  0.00  0.00    -0.287 OA
ATOM     17  C   UNL d   1      44.712 -14.514  37.407  0.00  0.00     0.003 A 
ENDBRANCH  10  11
ENDBRANCH   1  10
TORSDOF 2
ENDMDL
MODEL 2
REMARK VINA RESULT:      19.9      7.443      8.117
REMARK  2 active torsions:
REMARK  status: ('A' for Active; 'I' for Inactive)
REMARK    1  A    between atoms: C_7  and  C_1 
REMARK    2  A    between atoms: C_11  and  C_7 
ROOT
ATOM      1  C   UNL d   1      46.443 -18.528  43.845  0.00  0.00     0.116 A 
ATOM      2  N   UNL d   1      46.250 -18.981  42.508  0.00  0.00    -0.152 NA
ATOM      3  N   UNL d   1      46.066 -19.882  43.596  0.00  0.00    -0.152 NA
ATOM      4  C   UNL d   1      46.256 -19.281  44.130  0.00  0.00     0.288 A 
ATOM      5  C   UNL d   1      46.440 -18.379  43.038  0.00  0.00     0.288 A 
ATOM      6  C   UNL d   1      46.062 -19.733  42.790  0.00  0.00     0.374 A 
ATOM      7  O   UNL d   1      46.630 -17.612  42.739  0.00  0.00    -0.265 OA
ATOM      8  O   UNL d   1      46.259 -19.431  44.940  0.00  0.00    -0.265 OA
ATOM      9  O   UNL d   1      45.873 -20.327  42.240  0.00  0.00    -0.242 OA
ENDROOT
BRANCH   1  10
ATOM     10  C   UNL d   1      46.637 -17.915  44.381  0.00  0.00     0.010 C 
BRANCH  10  11
ATOM     11  C   UNL d   1      46.185 -17.223  44.396  0.00  0.00     0.001 A 
ATOM     12  C   UNL d   1      46.347 -16.612  43.873  0.00  0.00     0.003 A 
ATOM     13  C   UNL d   1      45.894 -15.923  43.891  0.00  0.00     0.042 A 
ATOM     14  C   UNL d   1      45.284 -15.854  44.431  0.00  0.00     0.196 A 
ATOM     15  C   UNL d   1      45.122 -16.465  44.954  0.00  0.00     0.042 A 
ATOM     16  O   UNL d   1      44.816 -15.155  44.456  0.00  0.00    -0.287 OA
ATOM     17  C   UNL d   1      45.568 -17.153  44.942  0.00  0.00     0.003 A 
ENDBRANCH  10  11
ENDBRANCH   1  10
TORSDOF 2
ENDMDL
