MODEL 1
REMARK VINA RESULT:      -3.0      0.000      0.000
REMARK  1 active torsions:
REMARK  status: ('A' for Active; 'I' for Inactive)
REMARK    1  A    between atoms: C_11  and  C_3 
ROOT
ATOM      1  C   UNL d   1      29.833  16.488 -24.015  0.00  0.00     0.052 A 
ATOM      2  C   UNL d   1      29.105  16.803 -24.279  0.00  0.00     0.115 A 
ATOM      3  C   UNL d   1      30.442  16.940 -24.323  0.00  0.00     0.011 A 
ATOM      4  C   UNL d   1      29.836  15.795 -23.504  0.00  0.00     0.139 A 
ATOM      5  N   UNL d   1      28.368  16.431 -24.035  0.00  0.00    -0.217 NA
ATOM      6  S   UNL d   1      29.256  17.453 -24.752  0.00  0.00    -0.067 SA
ATOM      7  C   UNL d   1      30.093  17.539 -24.780  0.00  0.00     0.037 A 
ATOM      8  N   UNL d   1      29.119  15.453 -23.281  0.00  0.00    -0.213 NA
ATOM      9  C   UNL d   1      28.363  15.780 -23.555  0.00  0.00     0.200 A 
ATOM     10  S   UNL d   1      30.554  15.454 -23.222  0.00  0.00    -0.057 SA
ENDROOT
BRANCH   3  11
ATOM     11  C   UNL d   1      31.215  17.109 -24.416  0.00  0.00     0.001 A 
ATOM     12  C   UNL d   1      31.670  16.762 -25.011  0.00  0.00     0.000 A 
ATOM     13  C   UNL d   1      32.475  16.948 -25.097  0.00  0.00     0.000 A 
ATOM     14  C   UNL d   1      32.820  17.487 -24.577  0.00  0.00     0.000 A 
ATOM     15  C   UNL d   1      32.365  17.834 -23.983  0.00  0.00     0.000 A 
ATOM     16  C   UNL d   1      31.564  17.641 -23.908  0.00  0.00     0.000 A 
ENDBRANCH   3  11
TORSDOF 1
ENDMDL
MODEL 2
REMARK VINA RESULT:      -2.6      1.571      3.073
REMARK  1 active torsions:
REMARK  status: ('A' for Active; 'I' for Inactive)
REMARK    1  A    between atoms: C_11  and  C_3 
ROOT
ATOM      1  C   UNL d   1      31.204  16.688 -24.044  0.00  0.00     0.052 A 
ATOM      2  C   UNL d   1      31.539  17.376 -24.381  0.00  0.00     0.115 A 
ATOM      3  C   UNL d   1      30.410  16.661 -24.238  0.00  0.00     0.011 A 
ATOM      4  C   UNL d   1      31.700  16.156 -23.583  0.00  0.00     0.139 A 
ATOM      5  N   UNL d   1      32.375  17.544 -24.263  0.00  0.00    -0.217 NA
ATOM      6  S   UNL d   1      30.955  17.781 -24.787  0.00  0.00    -0.067 SA
ATOM      7  C   UNL d   1      30.248  17.333 -24.697  0.00  0.00     0.037 A 
ATOM      8  N   UNL d   1      32.499  16.334 -23.481  0.00  0.00    -0.213 NA
ATOM      9  C   UNL d   1      32.847  17.049 -23.831  0.00  0.00     0.200 A 
ATOM     10  S   UNL d   1      31.392  15.454 -23.231  0.00  0.00    -0.057 SA
ENDROOT
BRANCH   3  11
ATOM     11  C   UNL d   1      29.692  16.316 -24.215  0.00  0.00     0.001 A 
ATOM     12  C   UNL d   1      29.166  16.444 -23.593  0.00  0.00     0.000 A 
ATOM     13  C   UNL d   1      28.419  16.079 -23.580  0.00  0.00     0.000 A 
ATOM     14  C   UNL d   1      28.206  15.582 -24.204  0.00  0.00     0.000 A 
ATOM     15  C   UNL d   1      28.733  15.455 -24.826  0.00  0.00     0.000 A 
ATOM     16  C   UNL d   1      29.473  15.824 -24.826  0.00  0.00     0.000 A 
ENDBRANCH   3  11
TORSDOF 1
ENDMDL
MODEL 3
REMARK VINA RESULT:      -2.4      1.542      2.546
REMARK  1 active torsions:
REMARK  status: ('A' for Active; 'I' for Inactive)
REMARK    1  A    between atoms: C_11  and  C_3 
ROOT
ATOM      1  C   UNL d   1      31.790  16.900 -23.981  0.00  0.00     0.052 A 
ATOM      2  C   UNL d   1      32.078  16.137 -23.796  0.00  0.00     0.115 A 
ATOM      3  C   UNL d   1      32.380  17.447 -23.835  0.00  0.00     0.011 A 
ATOM      4  C   UNL d   1      30.985  16.991 -24.273  0.00  0.00     0.139 A 
ATOM      5  N   UNL d   1      31.566  15.453 -23.900  0.00  0.00    -0.217 NA
ATOM      6  S   UNL d   1      32.850  16.205 -23.533  0.00  0.00    -0.067 SA
ATOM      7  C   UNL d   1      33.039  17.025 -23.557  0.00  0.00     0.037 A 
ATOM      8  N   UNL d   1      30.510  16.322 -24.366  0.00  0.00    -0.213 NA
ATOM      9  C   UNL d   1      30.809  15.530 -24.174  0.00  0.00     0.200 A 
ATOM     10  S   UNL d   1      30.665  17.746 -24.469  0.00  0.00    -0.057 SA
ENDROOT
BRANCH   3  11
ATOM     11  C   UNL d   1      32.660  18.193 -23.819  0.00  0.00     0.001 A 
ATOM     12  C   UNL d   1      32.836  18.608 -24.510  0.00  0.00     0.000 A 
ATOM     13  C   UNL d   1      33.128  19.386 -24.480  0.00  0.00     0.000 A 
ATOM     14  C   UNL d   1      33.241  19.743 -23.745  0.00  0.00     0.000 A 
ATOM     15  C   UNL d   1      33.065  19.327 -23.055  0.00  0.00     0.000 A 
ATOM     16  C   UNL d   1      32.775  18.554 -23.098  0.00  0.00     0.000 A 
ENDBRANCH   3  11
TORSDOF 1
ENDMDL
MODEL 4
REMARK VINA RESULT:      -1.5      2.612      3.730
REMARK  1 active torsions:
REMARK  status: ('A' for Active; 'I' for Inactive)
REMARK    1  A    between atoms: C_11  and  C_3 
ROOT
ATOM      1  C   UNL d   1      32.639  18.317 -23.685  0.00  0.00     0.052 A 
ATOM      2  C   UNL d   1      32.941  18.544 -22.940  0.00  0.00     0.115 A 
ATOM      3  C   UNL d   1      32.393  17.538 -23.644  0.00  0.00     0.011 A 
ATOM      4  C   UNL d   1      32.630  18.886 -24.332  0.00  0.00     0.139 A 
ATOM      5  N   UNL d   1      33.241  19.344 -22.828  0.00  0.00    -0.217 NA
ATOM      6  S   UNL d   1      32.886  17.907 -22.429  0.00  0.00    -0.067 SA
ATOM      7  C   UNL d   1      32.543  17.277 -22.869  0.00  0.00     0.037 A 
ATOM      8  N   UNL d   1      32.922  19.648 -24.205  0.00  0.00    -0.213 NA
ATOM      9  C   UNL d   1      33.236  19.883 -23.430  0.00  0.00     0.200 A 
ATOM     10  S   UNL d   1      32.332  18.688 -25.095  0.00  0.00    -0.057 SA
ENDROOT
BRANCH   3  11
ATOM     11  C   UNL d   1      32.077  16.881 -23.966  0.00  0.00     0.001 A 
ATOM     12  C   UNL d   1      32.535  16.336 -24.382  0.00  0.00     0.000 A 
ATOM     13  C   UNL d   1      32.193  15.655 -24.714  0.00  0.00     0.000 A 
ATOM     14  C   UNL d   1      31.383  15.527 -24.623  0.00  0.00     0.000 A 
ATOM     15  C   UNL d   1      30.927  16.074 -24.206  0.00  0.00     0.000 A 
ATOM     16  C   UNL d   1      31.278  16.747 -23.881  0.00  0.00     0.000 A 
ENDBRANCH   3  11
TORSDOF 1
ENDMDL
MODEL 5
REMARK VINA RESULT:      -1.0      6.923      7.896
REMARK  1 active torsions:
REMARK  status: ('A' for Active; 'I' for Inactive)
REMARK    1  A    between atoms: C_11  and  C_3 
ROOT
ATOM      1  C   UNL d   1      32.880  22.450 -20.851  0.00  0.00     0.052 A 
ATOM      2  C   UNL d   1      32.792  22.886 -21.559  0.00  0.00     0.115 A 
ATOM      3  C   UNL d   1      32.739  22.948 -20.217  0.00  0.00     0.011 A 
ATOM      4  C   UNL d   1      33.089  21.615 -20.888  0.00  0.00     0.139 A 
ATOM      5  N   UNL d   1      32.910  22.494 -22.317  0.00  0.00    -0.217 NA
ATOM      6  S   UNL d   1      32.595  23.657 -21.370  0.00  0.00    -0.067 SA
ATOM      7  C   UNL d   1      32.562  23.696 -20.530  0.00  0.00     0.037 A 
ATOM      8  N   UNL d   1      33.198  21.258 -21.624  0.00  0.00    -0.213 NA
ATOM      9  C   UNL d   1      33.106  21.710 -22.360  0.00  0.00     0.200 A 
ATOM     10  S   UNL d   1      33.185  21.149 -20.192  0.00  0.00    -0.057 SA
ENDROOT
BRANCH   3  11
ATOM     11  C   UNL d   1      32.681  23.093 -19.435  0.00  0.00     0.001 A 
ATOM     12  C   UNL d   1      32.072  23.552 -19.121  0.00  0.00     0.000 A 
ATOM     13  C   UNL d   1      32.023  23.696 -18.304  0.00  0.00     0.000 A 
ATOM     14  C   UNL d   1      32.595  23.372 -17.804  0.00  0.00     0.000 A 
ATOM     15  C   UNL d   1      33.203  22.913 -18.120  0.00  0.00     0.000 A 
ATOM     16  C   UNL d   1      33.241  22.777 -18.935  0.00  0.00     0.000 A 
ENDBRANCH   3  11
TORSDOF 1
ENDMDL
MODEL 6
REMARK VINA RESULT:      -0.9      4.842      5.968
REMARK  1 active torsions:
REMARK  status: ('A' for Active; 'I' for Inactive)
REMARK    1  A    between atoms: C_11  and  C_3 
ROOT
ATOM      1  C   UNL d   1      32.926  21.660 -22.081  0.00  0.00     0.052 A 
ATOM      2  C   UNL d   1      32.806  22.005 -21.329  0.00  0.00     0.115 A 
ATOM      3  C   UNL d   1      32.833  20.850 -22.017  0.00  0.00     0.011 A 
ATOM      4  C   UNL d   1      33.114  22.164 -22.754  0.00  0.00     0.139 A 
ATOM      5  N   UNL d   1      32.872  22.858 -21.237  0.00  0.00    -0.217 NA
ATOM      6  S   UNL d   1      32.637  21.411 -20.792  0.00  0.00    -0.067 SA
ATOM      7  C   UNL d   1      32.654  20.688 -21.223  0.00  0.00     0.037 A 
ATOM      8  N   UNL d   1      33.173  22.980 -22.646  0.00  0.00    -0.213 NA
ATOM      9  C   UNL d   1      33.048  23.337 -21.864  0.00  0.00     0.200 A 
ATOM     10  S   UNL d   1      33.241  21.847 -23.525  0.00  0.00    -0.057 SA
ENDROOT
BRANCH   3  11
ATOM     11  C   UNL d   1      32.824  20.116 -22.328  0.00  0.00     0.001 A 
ATOM     12  C   UNL d   1      32.410  19.940 -23.020  0.00  0.00     0.000 A 
ATOM     13  C   UNL d   1      32.408  19.171 -23.334  0.00  0.00     0.000 A 
ATOM     14  C   UNL d   1      32.828  18.577 -22.943  0.00  0.00     0.000 A 
ATOM     15  C   UNL d   1      33.241  18.754 -22.251  0.00  0.00     0.000 A 
ATOM     16  C   UNL d   1      33.235  19.524 -21.949  0.00  0.00     0.000 A 
ENDBRANCH   3  11
TORSDOF 1
ENDMDL
MODEL 7
REMARK VINA RESULT:      -0.8      6.193      7.038
REMARK  1 active torsions:
REMARK  status: ('A' for Active; 'I' for Inactive)
REMARK    1  A    between atoms: C_11  and  C_3 
ROOT
ATOM      1  C   UNL d   1      32.834  22.458 -21.378  0.00  0.00     0.052 A 
ATOM      2  C   UNL d   1      33.030  22.937 -20.721  0.00  0.00     0.115 A 
ATOM      3  C   UNL d   1      32.900  22.907 -22.059  0.00  0.00     0.011 A 
ATOM      4  C   UNL d   1      32.612  21.636 -21.254  0.00  0.00     0.139 A 
ATOM      5  N   UNL d   1      33.007  22.601 -19.929  0.00  0.00    -0.217 NA
ATOM      6  S   UNL d   1      33.219  23.687 -20.989  0.00  0.00    -0.067 SA
ATOM      7  C   UNL d   1      33.137  23.668 -21.827  0.00  0.00     0.037 A 
ATOM      8  N   UNL d   1      32.596  21.332 -20.487  0.00  0.00    -0.213 NA
ATOM      9  C   UNL d   1      32.800  21.829 -19.804  0.00  0.00     0.200 A 
ATOM     10  S   UNL d   1      32.409  21.128 -21.896  0.00  0.00    -0.057 SA
ENDROOT
BRANCH   3  11
ATOM     11  C   UNL d   1      32.853  22.998 -22.849  0.00  0.00     0.001 A 
ATOM     12  C   UNL d   1      32.432  23.618 -23.194  0.00  0.00     0.000 A 
ATOM     13  C   UNL d   1      32.391  23.702 -24.020  0.00  0.00     0.000 A 
ATOM     14  C   UNL d   1      32.779  23.153 -24.498  0.00  0.00     0.000 A 
ATOM     15  C   UNL d   1      33.200  22.533 -24.152  0.00  0.00     0.000 A 
ATOM     16  C   UNL d   1      33.233  22.461 -23.329  0.00  0.00     0.000 A 
ENDBRANCH   3  11
TORSDOF 1
ENDMDL
MODEL 8
REMARK VINA RESULT:      -0.6      1.557      3.401
REMARK  1 active torsions:
REMARK  status: ('A' for Active; 'I' for Inactive)
REMARK    1  A    between atoms: C_11  and  C_3 
ROOT
ATOM      1  C   UNL d   1      31.152  16.581 -23.935  0.00  0.00     0.052 A 
ATOM      2  C   UNL d   1      31.818  16.211 -23.591  0.00  0.00     0.115 A 
ATOM      3  C   UNL d   1      30.489  16.127 -23.778  0.00  0.00     0.011 A 
ATOM      4  C   UNL d   1      31.251  17.319 -24.367  0.00  0.00     0.139 A 
ATOM      5  N   UNL d   1      32.595  16.573 -23.673  0.00  0.00    -0.217 NA
ATOM      6  S   UNL d   1      31.574  15.525 -23.217  0.00  0.00    -0.067 SA
ATOM      7  C   UNL d   1      30.742  15.473 -23.334  0.00  0.00     0.037 A 
ATOM      8  N   UNL d   1      32.003  17.651 -24.435  0.00  0.00    -0.213 NA
ATOM      9  C   UNL d   1      32.696  17.266 -24.077  0.00  0.00     0.200 A 
ATOM     10  S   UNL d   1      30.599  17.716 -24.726  0.00  0.00    -0.057 SA
ENDROOT
BRANCH   3  11
ATOM     11  C   UNL d   1      29.707  15.982 -23.830  0.00  0.00     0.001 A 
ATOM     12  C   UNL d   1      29.183  16.195 -23.229  0.00  0.00     0.000 A 
ATOM     13  C   UNL d   1      28.369  16.038 -23.295  0.00  0.00     0.000 A 
ATOM     14  C   UNL d   1      28.087  15.664 -23.974  0.00  0.00     0.000 A 
ATOM     15  C   UNL d   1      28.612  15.452 -24.574  0.00  0.00     0.000 A 
ATOM     16  C   UNL d   1      29.419  15.614 -24.496  0.00  0.00     0.000 A 
ENDBRANCH   3  11
TORSDOF 1
ENDMDL
