MODEL 1
REMARK VINA RESULT:      -8.2      0.000      0.000
REMARK  4 active torsions:
REMARK  status: ('A' for Active; 'I' for Inactive)
REMARK    1  A    between atoms: C_8  and  N_2 
REMARK    2  A    between atoms: C_7  and  O_14 
REMARK    3  A    between atoms: C_15  and  C_8 
REMARK    4  A    between atoms: O_14  and  C_15 
ROOT
ATOM      1  C   UNL d   1      52.886  32.653  52.830  0.00  0.00     0.108 C 
ENDROOT
BRANCH   1   2
ATOM      2  N   UNL d   1      52.462  33.351  52.983  0.00  0.00    -0.285 N 
ATOM      3  C   UNL d   1      51.665  33.573  52.687  0.00  0.00     0.183 A 
ATOM      4  N   UNL d   1      51.508  34.368  53.031  0.00  0.00    -0.224 NA
ATOM      5  C   UNL d   1      52.147  34.620  53.499  0.00  0.00     0.099 A 
ATOM      6  C   UNL d   1      52.755  34.012  53.490  0.00  0.00     0.083 A 
ATOM      7  C   UNL d   1      52.261  35.276  53.910  0.00  0.00     0.021 A 
ATOM      8  C   UNL d   1      53.430  34.108  53.893  0.00  0.00     0.019 A 
ATOM      9  C   UNL d   1      53.542  34.838  54.343  0.00  0.00     0.002 A 
ATOM     10  C   UNL d   1      52.960  35.421  54.352  0.00  0.00     0.002 A 
ENDBRANCH   1   2
BRANCH   1  11
ATOM     11  C   UNL d   1      52.557  31.921  52.957  0.00  0.00     0.142 C 
BRANCH  11  12
ATOM     12  O   UNL d   1      52.935  31.246  52.666  0.00  0.00    -0.304 OA
BRANCH  12  13
ATOM     13  C   UNL d   1      53.028  30.573  53.145  0.00  0.00     0.100 A 
ATOM     14  C   UNL d   1      53.720  30.482  53.583  0.00  0.00     0.026 A 
ATOM     15  C   UNL d   1      53.843  29.833  54.063  0.00  0.00     0.013 A 
ATOM     16  C   UNL d   1      53.254  29.230  54.122  0.00  0.00     0.058 A 
ATOM     17  C   UNL d   1      52.554  29.332  53.671  0.00  0.00     0.013 A 
ATOM     18 CL   UNL d   1      53.389  28.561  54.621  0.00  0.00    -0.082 Cl
ATOM     19  C   UNL d   1      52.447  29.990  53.195  0.00  0.00     0.026 A 
ENDBRANCH  12  13
ENDBRANCH  11  12
ENDBRANCH   1  11
TORSDOF 4
ENDMDL
MODEL 2
REMARK VINA RESULT:      -8.1      2.928      4.554
REMARK  4 active torsions:
REMARK  status: ('A' for Active; 'I' for Inactive)
REMARK    1  A    between atoms: C_8  and  N_2 
REMARK    2  A    between atoms: C_7  and  O_14 
REMARK    3  A    between atoms: C_15  and  C_8 
REMARK    4  A    between atoms: O_14  and  C_15 
ROOT
ATOM      1  C   UNL d   1      52.187  34.015  53.105  0.00  0.00     0.108 C 
ENDROOT
BRANCH   1   2
ATOM      2  N   UNL d   1      52.716  34.248  53.702  0.00  0.00    -0.285 N 
ATOM      3  C   UNL d   1      52.820  35.049  54.047  0.00  0.00     0.183 A 
ATOM      4  N   UNL d   1      53.454  34.957  54.651  0.00  0.00    -0.224 NA
ATOM      5  C   UNL d   1      53.721  34.170  54.682  0.00  0.00     0.099 A 
ATOM      6  C   UNL d   1      53.284  33.705  54.106  0.00  0.00     0.083 A 
ATOM      7  C   UNL d   1      54.268  33.825  55.123  0.00  0.00     0.021 A 
ATOM      8  C   UNL d   1      53.428  32.931  54.017  0.00  0.00     0.019 A 
ATOM      9  C   UNL d   1      54.034  32.564  54.512  0.00  0.00     0.002 A 
ATOM     10  C   UNL d   1      54.453  33.010  55.064  0.00  0.00     0.002 A 
ENDBRANCH   1   2
BRANCH   1  11
ATOM     11  C   UNL d   1      51.457  34.362  53.027  0.00  0.00     0.142 C 
BRANCH  11  12
ATOM     12  O   UNL d   1      50.864  33.977  52.600  0.00  0.00    -0.304 OA
BRANCH  12  13
ATOM     13  C   UNL d   1      50.146  34.360  52.432  0.00  0.00     0.100 A 
ATOM     14  C   UNL d   1      49.831  34.313  51.672  0.00  0.00     0.026 A 
ATOM     15  C   UNL d   1      49.128  34.678  51.474  0.00  0.00     0.013 A 
ATOM     16  C   UNL d   1      48.699  35.119  52.054  0.00  0.00     0.058 A 
ATOM     17  C   UNL d   1      49.028  35.161  52.824  0.00  0.00     0.013 A 
ATOM     18 CL   UNL d   1      47.972  35.494  51.840  0.00  0.00    -0.082 Cl
ATOM     19  C   UNL d   1      49.736  34.788  53.005  0.00  0.00     0.026 A 
ENDBRANCH  12  13
ENDBRANCH  11  12
ENDBRANCH   1  11
TORSDOF 4
ENDMDL
MODEL 3
REMARK VINA RESULT:      -7.7      0.731      1.562
REMARK  4 active torsions:
REMARK  status: ('A' for Active; 'I' for Inactive)
REMARK    1  A    between atoms: C_8  and  N_2 
REMARK    2  A    between atoms: C_7  and  O_14 
REMARK    3  A    between atoms: C_15  and  C_8 
REMARK    4  A    between atoms: O_14  and  C_15 
ROOT
ATOM      1  C   UNL d   1      52.544  32.476  52.628  0.00  0.00     0.108 C 
ENDROOT
BRANCH   1   2
ATOM      2  N   UNL d   1      52.421  33.226  52.964  0.00  0.00    -0.285 N 
ATOM      3  C   UNL d   1      52.995  33.715  53.413  0.00  0.00     0.183 A 
ATOM      4  N   UNL d   1      52.553  34.446  53.628  0.00  0.00    -0.224 NA
ATOM      5  C   UNL d   1      51.774  34.417  53.339  0.00  0.00     0.099 A 
ATOM      6  C   UNL d   1      51.660  33.673  52.922  0.00  0.00     0.083 A 
ATOM      7  C   UNL d   1      51.183  34.927  53.389  0.00  0.00     0.021 A 
ATOM      8  C   UNL d   1      50.963  33.499  52.589  0.00  0.00     0.019 A 
ATOM      9  C   UNL d   1      50.319  34.072  52.652  0.00  0.00     0.002 A 
ATOM     10  C   UNL d   1      50.429  34.785  53.051  0.00  0.00     0.002 A 
ENDBRANCH   1   2
BRANCH   1  11
ATOM     11  C   UNL d   1      52.929  31.888  53.034  0.00  0.00     0.142 C 
BRANCH  11  12
ATOM     12  O   UNL d   1      52.931  31.117  52.736  0.00  0.00    -0.304 OA
BRANCH  12  13
ATOM     13  C   UNL d   1      53.079  30.470  53.236  0.00  0.00     0.100 A 
ATOM     14  C   UNL d   1      52.512  29.876  53.307  0.00  0.00     0.026 A 
ATOM     15  C   UNL d   1      52.627  29.227  53.789  0.00  0.00     0.013 A 
ATOM     16  C   UNL d   1      53.341  29.149  54.235  0.00  0.00     0.058 A 
ATOM     17  C   UNL d   1      53.911  29.759  54.156  0.00  0.00     0.013 A 
ATOM     18 CL   UNL d   1      53.452  28.474  54.732  0.00  0.00    -0.082 Cl
ATOM     19  C   UNL d   1      53.780  30.404  53.666  0.00  0.00     0.026 A 
ENDBRANCH  12  13
ENDBRANCH  11  12
ENDBRANCH   1  11
TORSDOF 4
ENDMDL
MODEL 4
REMARK VINA RESULT:      -7.6      2.403      4.677
REMARK  4 active torsions:
REMARK  status: ('A' for Active; 'I' for Inactive)
REMARK    1  A    between atoms: C_8  and  N_2 
REMARK    2  A    between atoms: C_7  and  O_14 
REMARK    3  A    between atoms: C_15  and  C_8 
REMARK    4  A    between atoms: O_14  and  C_15 
ROOT
ATOM      1  C   UNL d   1      52.545  32.557  52.666  0.00  0.00     0.108 C 
ENDROOT
BRANCH   1   2
ATOM      2  N   UNL d   1      53.027  32.120  53.183  0.00  0.00    -0.285 N 
ATOM      3  C   UNL d   1      53.623  32.427  53.750  0.00  0.00     0.183 A 
ATOM      4  N   UNL d   1      53.955  31.711  54.141  0.00  0.00    -0.224 NA
ATOM      5  C   UNL d   1      53.599  31.020  53.845  0.00  0.00     0.099 A 
ATOM      6  C   UNL d   1      53.019  31.239  53.249  0.00  0.00     0.083 A 
ATOM      7  C   UNL d   1      53.710  30.265  54.018  0.00  0.00     0.021 A 
ATOM      8  C   UNL d   1      52.595  30.686  52.873  0.00  0.00     0.019 A 
ATOM      9  C   UNL d   1      52.728  29.856  53.075  0.00  0.00     0.002 A 
ATOM     10  C   UNL d   1      53.284  29.646  53.646  0.00  0.00     0.002 A 
ENDBRANCH   1   2
BRANCH   1  11
ATOM     11  C   UNL d   1      52.117  33.197  52.925  0.00  0.00     0.142 C 
BRANCH  11  12
ATOM     12  O   UNL d   1      51.824  33.743  52.378  0.00  0.00    -0.304 OA
BRANCH  12  13
ATOM     13  C   UNL d   1      51.090  34.113  52.500  0.00  0.00     0.100 A 
ATOM     14  C   UNL d   1      50.544  34.140  51.884  0.00  0.00     0.026 A 
ATOM     15  C   UNL d   1      49.814  34.496  51.971  0.00  0.00     0.013 A 
ATOM     16  C   UNL d   1      49.598  34.850  52.707  0.00  0.00     0.058 A 
ATOM     17  C   UNL d   1      50.162  34.817  53.328  0.00  0.00     0.013 A 
ATOM     18 CL   UNL d   1      48.841  35.217  52.789  0.00  0.00    -0.082 Cl
ATOM     19  C   UNL d   1      50.890  34.455  53.223  0.00  0.00     0.026 A 
ENDBRANCH  12  13
ENDBRANCH  11  12
ENDBRANCH   1  11
TORSDOF 4
ENDMDL
MODEL 5
REMARK VINA RESULT:      -7.5      2.216      4.663
REMARK  4 active torsions:
REMARK  status: ('A' for Active; 'I' for Inactive)
REMARK    1  A    between atoms: C_8  and  N_2 
REMARK    2  A    between atoms: C_7  and  O_14 
REMARK    3  A    between atoms: C_15  and  C_8 
REMARK    4  A    between atoms: O_14  and  C_15 
ROOT
ATOM      1  C   UNL d   1      53.791  31.809  53.697  0.00  0.00     0.108 C 
ENDROOT
BRANCH   1   2
ATOM      2  N   UNL d   1      53.373  31.162  53.385  0.00  0.00    -0.285 N 
ATOM      3  C   UNL d   1      52.904  31.132  52.643  0.00  0.00     0.183 A 
ATOM      4  N   UNL d   1      52.593  30.310  52.603  0.00  0.00    -0.224 NA
ATOM      5  C   UNL d   1      52.844  29.866  53.260  0.00  0.00     0.099 A 
ATOM      6  C   UNL d   1      53.330  30.365  53.764  0.00  0.00     0.083 A 
ATOM      7  C   UNL d   1      52.711  29.122  53.465  0.00  0.00     0.021 A 
ATOM      8  C   UNL d   1      53.644  30.082  54.433  0.00  0.00     0.019 A 
ATOM      9  C   UNL d   1      53.489  29.259  54.647  0.00  0.00     0.002 A 
ATOM     10  C   UNL d   1      53.023  28.780  54.164  0.00  0.00     0.002 A 
ENDBRANCH   1   2
BRANCH   1  11
ATOM     11  C   UNL d   1      53.517  32.569  53.618  0.00  0.00     0.142 C 
BRANCH  11  12
ATOM     12  O   UNL d   1      53.981  33.201  53.878  0.00  0.00    -0.304 OA
BRANCH  12  13
ATOM     13  C   UNL d   1      53.632  33.929  54.079  0.00  0.00     0.100 A 
ATOM     14  C   UNL d   1      53.704  34.212  54.849  0.00  0.00     0.026 A 
ATOM     15  C   UNL d   1      53.373  34.923  55.079  0.00  0.00     0.013 A 
ATOM     16  C   UNL d   1      52.943  35.391  54.522  0.00  0.00     0.058 A 
ATOM     17  C   UNL d   1      52.876  35.094  53.741  0.00  0.00     0.013 A 
ATOM     18 CL   UNL d   1      52.604  36.125  54.768  0.00  0.00    -0.082 Cl
ATOM     19  C   UNL d   1      53.214  34.378  53.528  0.00  0.00     0.026 A 
ENDBRANCH  12  13
ENDBRANCH  11  12
ENDBRANCH   1  11
TORSDOF 4
ENDMDL
MODEL 6
REMARK VINA RESULT:      -7.3      3.099      4.799
REMARK  4 active torsions:
REMARK  status: ('A' for Active; 'I' for Inactive)
REMARK    1  A    between atoms: C_8  and  N_2 
REMARK    2  A    between atoms: C_7  and  O_14 
REMARK    3  A    between atoms: C_15  and  C_8 
REMARK    4  A    between atoms: O_14  and  C_15 
ROOT
ATOM      1  C   UNL d   1      51.508  33.981  53.222  0.00  0.00     0.108 C 
ENDROOT
BRANCH   1   2
ATOM      2  N   UNL d   1      52.033  33.341  53.160  0.00  0.00    -0.285 N 
ATOM      3  C   UNL d   1      52.007  32.676  52.586  0.00  0.00     0.183 A 
ATOM      4  N   UNL d   1      52.701  32.173  52.788  0.00  0.00    -0.224 NA
ATOM      5  C   UNL d   1      53.123  32.493  53.429  0.00  0.00     0.099 A 
ATOM      6  C   UNL d   1      52.735  33.218  53.683  0.00  0.00     0.083 A 
ATOM      7  C   UNL d   1      53.766  32.248  53.800  0.00  0.00     0.021 A 
ATOM      8  C   UNL d   1      53.021  33.640  54.288  0.00  0.00     0.019 A 
ATOM      9  C   UNL d   1      53.734  33.357  54.689  0.00  0.00     0.002 A 
ATOM     10  C   UNL d   1      54.105  32.663  54.446  0.00  0.00     0.002 A 
ENDBRANCH   1   2
BRANCH   1  11
ATOM     11  C   UNL d   1      50.807  33.995  52.812  0.00  0.00     0.142 C 
BRANCH  11  12
ATOM     12  O   UNL d   1      50.210  34.520  53.039  0.00  0.00    -0.304 OA
BRANCH  12  13
ATOM     13  C   UNL d   1      49.581  34.694  52.524  0.00  0.00     0.100 A 
ATOM     14  C   UNL d   1      49.001  35.229  52.761  0.00  0.00     0.026 A 
ATOM     15  C   UNL d   1      48.370  35.421  52.280  0.00  0.00     0.013 A 
ATOM     16  C   UNL d   1      48.296  35.070  51.515  0.00  0.00     0.058 A 
ATOM     17  C   UNL d   1      48.891  34.526  51.283  0.00  0.00     0.013 A 
ATOM     18 CL   UNL d   1      47.640  35.274  51.022  0.00  0.00    -0.082 Cl
ATOM     19  C   UNL d   1      49.518  34.344  51.780  0.00  0.00     0.026 A 
ENDBRANCH  12  13
ENDBRANCH  11  12
ENDBRANCH   1  11
TORSDOF 4
ENDMDL
MODEL 7
REMARK VINA RESULT:      -7.2      3.493      4.777
REMARK  4 active torsions:
REMARK  status: ('A' for Active; 'I' for Inactive)
REMARK    1  A    between atoms: C_8  and  N_2 
REMARK    2  A    between atoms: C_7  and  O_14 
REMARK    3  A    between atoms: C_15  and  C_8 
REMARK    4  A    between atoms: O_14  and  C_15 
ROOT
ATOM      1  C   UNL d   1      49.415  34.759  52.504  0.00  0.00     0.108 C 
ENDROOT
BRANCH   1   2
ATOM      2  N   UNL d   1      48.867  35.308  52.802  0.00  0.00    -0.285 N 
ATOM      3  C   UNL d   1      48.900  35.741  53.566  0.00  0.00     0.183 A 
ATOM      4  N   UNL d   1      48.174  36.239  53.576  0.00  0.00    -0.224 NA
ATOM      5  C   UNL d   1      47.728  36.127  52.883  0.00  0.00     0.099 A 
ATOM      6  C   UNL d   1      48.130  35.556  52.382  0.00  0.00     0.083 A 
ATOM      7  C   UNL d   1      47.052  36.442  52.646  0.00  0.00     0.021 A 
ATOM      8  C   UNL d   1      47.825  35.345  51.683  0.00  0.00     0.019 A 
ATOM      9  C   UNL d   1      47.078  35.701  51.433  0.00  0.00     0.002 A 
ATOM     10  C   UNL d   1      46.693  36.249  51.913  0.00  0.00     0.002 A 
ENDBRANCH   1   2
BRANCH   1  11
ATOM     11  C   UNL d   1      50.135  34.642  52.862  0.00  0.00     0.142 C 
BRANCH  11  12
ATOM     12  O   UNL d   1      50.712  34.187  52.483  0.00  0.00    -0.304 OA
BRANCH  12  13
ATOM     13  C   UNL d   1      51.440  34.032  52.853  0.00  0.00     0.100 A 
ATOM     14  C   UNL d   1      51.585  33.282  53.162  0.00  0.00     0.026 A 
ATOM     15  C   UNL d   1      52.289  33.098  53.531  0.00  0.00     0.013 A 
ATOM     16  C   UNL d   1      52.896  33.681  53.606  0.00  0.00     0.058 A 
ATOM     17  C   UNL d   1      52.738  34.442  53.288  0.00  0.00     0.013 A 
ATOM     18 CL   UNL d   1      53.622  33.482  53.990  0.00  0.00    -0.082 Cl
ATOM     19  C   UNL d   1      52.025  34.609  52.921  0.00  0.00     0.026 A 
ENDBRANCH  12  13
ENDBRANCH  11  12
ENDBRANCH   1  11
TORSDOF 4
ENDMDL
MODEL 8
REMARK VINA RESULT:      -7.2      2.380      3.743
REMARK  4 active torsions:
REMARK  status: ('A' for Active; 'I' for Inactive)
REMARK    1  A    between atoms: C_8  and  N_2 
REMARK    2  A    between atoms: C_7  and  O_14 
REMARK    3  A    between atoms: C_15  and  C_8 
REMARK    4  A    between atoms: O_14  and  C_15 
ROOT
ATOM      1  C   UNL d   1      51.084  34.027  52.428  0.00  0.00     0.108 C 
ENDROOT
BRANCH   1   2
ATOM      2  N   UNL d   1      50.350  34.400  52.543  0.00  0.00    -0.285 N 
ATOM      3  C   UNL d   1      50.045  34.775  53.277  0.00  0.00     0.183 A 
ATOM      4  N   UNL d   1      49.245  35.074  53.064  0.00  0.00    -0.224 NA
ATOM      5  C   UNL d   1      49.065  34.902  52.270  0.00  0.00     0.099 A 
ATOM      6  C   UNL d   1      49.730  34.485  51.919  0.00  0.00     0.083 A 
ATOM      7  C   UNL d   1      48.432  35.054  51.838  0.00  0.00     0.021 A 
ATOM      8  C   UNL d   1      49.709  34.253  51.162  0.00  0.00     0.019 A 
ATOM      9  C   UNL d   1      49.001  34.428  50.696  0.00  0.00     0.002 A 
ATOM     10  C   UNL d   1      48.365  34.828  51.033  0.00  0.00     0.002 A 
ENDBRANCH   1   2
BRANCH   1  11
ATOM     11  C   UNL d   1      51.627  33.968  53.029  0.00  0.00     0.142 C 
BRANCH  11  12
ATOM     12  O   UNL d   1      52.375  33.652  52.875  0.00  0.00    -0.304 OA
BRANCH  12  13
ATOM     13  C   UNL d   1      52.918  33.529  53.493  0.00  0.00     0.100 A 
ATOM     14  C   UNL d   1      53.194  32.767  53.643  0.00  0.00     0.026 A 
ATOM     15  C   UNL d   1      53.728  32.613  54.242  0.00  0.00     0.013 A 
ATOM     16  C   UNL d   1      54.014  33.242  54.728  0.00  0.00     0.058 A 
ATOM     17  C   UNL d   1      53.728  34.014  54.567  0.00  0.00     0.013 A 
ATOM     18 CL   UNL d   1      54.567  33.074  55.346  0.00  0.00    -0.082 Cl
ATOM     19  C   UNL d   1      53.192  34.150  53.962  0.00  0.00     0.026 A 
ENDBRANCH  12  13
ENDBRANCH  11  12
ENDBRANCH   1  11
TORSDOF 4
ENDMDL
MODEL 9
REMARK VINA RESULT:      -5.8      9.125      9.681
REMARK  4 active torsions:
REMARK  status: ('A' for Active; 'I' for Inactive)
REMARK    1  A    between atoms: C_8  and  N_2 
REMARK    2  A    between atoms: C_7  and  O_14 
REMARK    3  A    between atoms: C_15  and  C_8 
REMARK    4  A    between atoms: O_14  and  C_15 
ROOT
ATOM      1  C   UNL d   1      45.047  29.113  57.452  0.00  0.00     0.108 C 
ENDROOT
BRANCH   1   2
ATOM      2  N   UNL d   1      44.834  29.652  56.857  0.00  0.00    -0.285 N 
ATOM      3  C   UNL d   1      44.719  29.492  56.002  0.00  0.00     0.183 A 
ATOM      4  N   UNL d   1      44.500  30.270  55.652  0.00  0.00    -0.224 NA
ATOM      5  C   UNL d   1      44.480  30.862  56.235  0.00  0.00     0.099 A 
ATOM      6  C   UNL d   1      44.682  30.512  56.994  0.00  0.00     0.083 A 
ATOM      7  C   UNL d   1      44.316  31.626  56.193  0.00  0.00     0.021 A 
ATOM      8  C   UNL d   1      44.705  30.953  57.651  0.00  0.00     0.019 A 
ATOM      9  C   UNL d   1      44.522  31.796  57.589  0.00  0.00     0.002 A 
ATOM     10  C   UNL d   1      44.328  32.132  56.862  0.00  0.00     0.002 A 
ENDBRANCH   1   2
BRANCH   1  11
ATOM     11  C   UNL d   1      45.046  28.311  57.318  0.00  0.00     0.142 C 
BRANCH  11  12
ATOM     12  O   UNL d   1      45.469  27.811  57.821  0.00  0.00    -0.304 OA
BRANCH  12  13
ATOM     13  C   UNL d   1      45.199  27.041  57.979  0.00  0.00     0.100 A 
ATOM     14  C   UNL d   1      44.953  26.563  57.354  0.00  0.00     0.026 A 
ATOM     15  C   UNL d   1      44.682  25.803  57.475  0.00  0.00     0.013 A 
ATOM     16  C   UNL d   1      44.646  25.483  58.256  0.00  0.00     0.058 A 
ATOM     17  C   UNL d   1      44.899  25.977  58.885  0.00  0.00     0.013 A 
ATOM     18 CL   UNL d   1      44.364  24.694  58.373  0.00  0.00    -0.082 Cl
ATOM     19  C   UNL d   1      45.168  26.739  58.746  0.00  0.00     0.026 A 
ENDBRANCH  12  13
ENDBRANCH  11  12
ENDBRANCH   1  11
TORSDOF 4
ENDMDL
