MODEL 1
REMARK VINA RESULT:      -5.8      0.000      0.000
REMARK  4 active torsions:
REMARK  status: ('A' for Active; 'I' for Inactive)
REMARK    1  A    between atoms: C_6  and  C_2 
REMARK    2  A    between atoms: O_7  and  C_6 
REMARK    3  A    between atoms: C_8  and  O_7 
REMARK    4  A    between atoms: O_14  and  C_9 
ROOT
ATOM      1  C   UNL d   1     -41.499-122.640 -51.684  0.00  0.00     0.161 C 
ENDROOT
BRANCH   1   2
ATOM      2  C   UNL d   1     -41.483-122.701 -52.495  0.00  0.00     0.188 A 
ATOM      3  N   UNL d   1     -41.907-122.092 -52.794  0.00  0.00    -0.224 NA
ATOM      4  C   UNL d   1     -41.867-122.191 -53.664  0.00  0.00     0.101 A 
ATOM      5  C   UNL d   1     -41.426-122.845 -53.826  0.00  0.00     0.101 A 
ATOM      6  C   UNL d   1     -42.224-121.695 -54.275  0.00  0.00     0.021 A 
ATOM      7  C   UNL d   1     -41.310-123.051 -54.612  0.00  0.00     0.021 A 
ATOM      8  N   UNL d   1     -41.178-123.173 -53.063  0.00  0.00    -0.224 NA
ATOM      9  C   UNL d   1     -41.620-122.625 -55.238  0.00  0.00     0.002 A 
ATOM     10  C   UNL d   1     -42.062-121.970 -55.075  0.00  0.00     0.002 A 
ENDBRANCH   1   2
BRANCH   1  11
ATOM     11  O   UNL d   1     -41.756-123.285 -51.213  0.00  0.00    -0.302 OA
BRANCH  11  12
ATOM     12  C   UNL d   1     -41.797-123.222 -50.381  0.00  0.00     0.100 A 
ATOM     13  C   UNL d   1     -42.502-122.979 -50.023  0.00  0.00     0.027 A 
ATOM     14  C   UNL d   1     -42.566-122.910 -49.207  0.00  0.00     0.026 A 
ATOM     15  C   UNL d   1     -41.896-123.092 -48.752  0.00  0.00     0.094 A 
ATOM     16  C   UNL d   1     -41.192-123.335 -49.109  0.00  0.00     0.026 A 
ATOM     17  C   UNL d   1     -41.129-123.405 -49.934  0.00  0.00     0.027 A 
BRANCH  15  18
ATOM     18  O   UNL d   1     -41.937-123.029 -47.920  0.00  0.00    -0.328 OA
ATOM     19  C   UNL d   1     -42.110-123.181 -46.979  0.00  0.00     0.181 C 
ENDBRANCH  15  18
ENDBRANCH  11  12
ENDBRANCH   1  11
TORSDOF 4
ENDMDL
MODEL 2
REMARK VINA RESULT:      -5.1      1.476      5.072
REMARK  4 active torsions:
REMARK  status: ('A' for Active; 'I' for Inactive)
REMARK    1  A    between atoms: C_6  and  C_2 
REMARK    2  A    between atoms: O_7  and  C_6 
REMARK    3  A    between atoms: C_8  and  O_7 
REMARK    4  A    between atoms: O_14  and  C_9 
ROOT
ATOM      1  C   UNL d   1     -41.834-123.093 -51.100  0.00  0.00     0.161 C 
ENDROOT
BRANCH   1   2
ATOM      2  C   UNL d   1     -41.717-123.193 -50.302  0.00  0.00     0.188 A 
ATOM      3  N   UNL d   1     -42.426-123.118 -49.940  0.00  0.00    -0.224 NA
ATOM      4  C   UNL d   1     -42.262-123.230 -49.087  0.00  0.00     0.101 A 
ATOM      5  C   UNL d   1     -41.472-123.364 -48.995  0.00  0.00     0.101 A 
ATOM      6  C   UNL d   1     -42.819-123.209 -48.427  0.00  0.00     0.021 A 
ATOM      7  C   UNL d   1     -41.184-123.486 -48.237  0.00  0.00     0.021 A 
ATOM      8  N   UNL d   1     -41.123-123.338 -49.788  0.00  0.00    -0.224 NA
ATOM      9  C   UNL d   1     -41.658-123.479 -47.569  0.00  0.00     0.002 A 
ATOM     10  C   UNL d   1     -42.447-123.345 -47.661  0.00  0.00     0.002 A 
ENDBRANCH   1   2
BRANCH   1  11
ATOM     11  O   UNL d   1     -41.180-123.016 -51.621  0.00  0.00    -0.302 OA
BRANCH  11  12
ATOM     12  C   UNL d   1     -41.291-122.839 -52.430  0.00  0.00     0.100 A 
ATOM     13  C   UNL d   1     -41.176-123.429 -52.998  0.00  0.00     0.027 A 
ATOM     14  C   UNL d   1     -41.279-123.279 -53.798  0.00  0.00     0.026 A 
ATOM     15  C   UNL d   1     -41.506-122.511 -54.019  0.00  0.00     0.094 A 
ATOM     16  C   UNL d   1     -41.621-121.921 -53.452  0.00  0.00     0.026 A 
ATOM     17  C   UNL d   1     -41.516-122.075 -52.643  0.00  0.00     0.027 A 
BRANCH  15  18
ATOM     18  O   UNL d   1     -41.617-122.334 -54.828  0.00  0.00    -0.328 OA
ATOM     19  C   UNL d   1     -41.931-121.975 -55.671  0.00  0.00     0.181 C 
ENDBRANCH  15  18
ENDBRANCH  11  12
ENDBRANCH   1  11
TORSDOF 4
ENDMDL
