MODEL 1
REMARK VINA RESULT:      -7.4      0.000      0.000
REMARK  5 active torsions:
REMARK  status: ('A' for Active; 'I' for Inactive)
REMARK    1  A    between atoms: N_9  and  S_1 
REMARK    2  A    between atoms: C_12  and  S_1 
REMARK    3  A    between atoms: C_6  and  C_15 
REMARK    4  A    between atoms: C_18  and  N_9 
REMARK       I    between atoms: C_16  and  N_17 
REMARK    5  A    between atoms: N_17  and  C_23 
ROOT
ATOM      1  C   UNL d   1     -48.634  12.793  22.953  0.00  0.00     0.021 A 
ATOM      2  C   UNL d   1     -47.311  12.506  23.438  0.00  0.00     0.094 A 
ATOM      3  C   UNL d   1     -47.886  13.052  23.213  0.00  0.00     0.021 A 
ATOM      4  C   UNL d   1     -48.794  11.987  22.923  0.00  0.00     0.002 A 
ATOM      5  C   UNL d   1     -48.230  11.437  23.144  0.00  0.00     0.002 A 
ATOM      6  C   UNL d   1     -47.482  11.696  23.404  0.00  0.00     0.020 A 
ENDROOT
BRANCH   2   7
ATOM      7  N   UNL d   1     -46.575  12.761  23.694  0.00  0.00    -0.158 NA
BRANCH   7   8
ATOM      8  S   UNL d   1     -45.933  12.735  23.183  0.00  0.00     0.285 S 
ATOM      9  O   UNL d   1     -46.090  13.513  22.958  0.00  0.00    -0.198 OA
ATOM     10  O   UNL d   1     -45.769  11.956  23.403  0.00  0.00    -0.198 OA
BRANCH   8  11
ATOM     11  C   UNL d   1     -45.284  12.708  22.666  0.00  0.00     0.105 A 
ATOM     12  C   UNL d   1     -44.703  12.135  22.787  0.00  0.00     0.015 A 
ATOM     13  C   UNL d   1     -44.043  12.089  22.281  0.00  0.00     0.020 A 
ATOM     14  C   UNL d   1     -43.975  12.628  21.650  0.00  0.00     0.085 A 
ATOM     15  C   UNL d   1     -44.557  13.201  21.530  0.00  0.00     0.020 A 
ATOM     16  C   UNL d   1     -45.215  13.237  22.044  0.00  0.00     0.015 A 
BRANCH  14  17
ATOM     17  N   UNL d   1     -43.339  12.591  21.154  0.00  0.00    -0.208 NA
ATOM     18  C   UNL d   1     -42.750  13.157  21.200  0.00  0.00     0.279 C 
ATOM     19  O   UNL d   1     -42.804  13.765  21.753  0.00  0.00    -0.265 OA
ATOM     20  C   UNL d   1     -42.110  13.121  20.702  0.00  0.00     0.068 C 
ENDBRANCH  14  17
ENDBRANCH   8  11
ENDBRANCH   7   8
ENDBRANCH   2   7
BRANCH   1  21
ATOM     21  C   UNL d   1     -49.201  13.352  22.730  0.00  0.00     0.102 A 
ATOM     22  N   UNL d   1     -49.357  13.985  23.248  0.00  0.00    -0.162 NA
ATOM     23  N   UNL d   1     -49.928  14.555  23.030  0.00  0.00    -0.189 N 
ATOM     24  C   UNL d   1     -50.196  15.224  23.414  0.00  0.00     0.224 A 
ATOM     25  C   UNL d   1     -50.336  14.489  22.307  0.00  0.00     0.187 A 
ATOM     26  N   UNL d   1     -50.761  15.577  22.946  0.00  0.00    -0.124 NA
ATOM     27  N   UNL d   1     -50.841  15.119  22.268  0.00  0.00    -0.127 NA
ATOM     28  C   UNL d   1     -50.162  13.844  21.803  0.00  0.00     0.042 A 
ATOM     29  C   UNL d   1     -49.595  13.279  22.020  0.00  0.00     0.024 A 
ENDBRANCH   1  21
TORSDOF 5
ENDMDL
MODEL 2
REMARK VINA RESULT:      -5.2      1.842      2.579
REMARK  5 active torsions:
REMARK  status: ('A' for Active; 'I' for Inactive)
REMARK    1  A    between atoms: N_9  and  S_1 
REMARK    2  A    between atoms: C_12  and  S_1 
REMARK    3  A    between atoms: C_6  and  C_15 
REMARK    4  A    between atoms: C_18  and  N_9 
REMARK       I    between atoms: C_16  and  N_17 
REMARK    5  A    between atoms: N_17  and  C_23 
ROOT
ATOM      1  C   UNL d   1     -48.562  14.091  22.551  0.00  0.00     0.021 A 
ATOM      2  C   UNL d   1     -47.183  14.499  22.556  0.00  0.00     0.094 A 
ATOM      3  C   UNL d   1     -47.752  13.906  22.488  0.00  0.00     0.021 A 
ATOM      4  C   UNL d   1     -48.789  14.871  22.681  0.00  0.00     0.002 A 
ATOM      5  C   UNL d   1     -48.232  15.466  22.750  0.00  0.00     0.002 A 
ATOM      6  C   UNL d   1     -47.422  15.281  22.687  0.00  0.00     0.020 A 
ENDROOT
BRANCH   2   7
ATOM      7  N   UNL d   1     -46.386  14.317  22.494  0.00  0.00    -0.158 NA
BRANCH   7   8
ATOM      8  S   UNL d   1     -46.125  13.560  22.676  0.00  0.00     0.285 S 
ATOM      9  O   UNL d   1     -46.118  13.377  21.872  0.00  0.00    -0.198 OA
ATOM     10  O   UNL d   1     -46.128  13.735  23.483  0.00  0.00    -0.198 OA
BRANCH   8  11
ATOM     11  C   UNL d   1     -45.861  12.795  22.861  0.00  0.00     0.105 A 
ATOM     12  C   UNL d   1     -45.306  12.435  22.367  0.00  0.00     0.015 A 
ATOM     13  C   UNL d   1     -45.028  11.667  22.534  0.00  0.00     0.020 A 
ATOM     14  C   UNL d   1     -45.315  11.267  23.204  0.00  0.00     0.085 A 
ATOM     15  C   UNL d   1     -45.869  11.628  23.698  0.00  0.00     0.020 A 
ATOM     16  C   UNL d   1     -46.141  12.398  23.520  0.00  0.00     0.015 A 
BRANCH  14  17
ATOM     17  N   UNL d   1     -45.051  10.523  23.374  0.00  0.00    -0.208 NA
ATOM     18  C   UNL d   1     -44.258  10.395  23.527  0.00  0.00     0.279 C 
ATOM     19  O   UNL d   1     -43.726  11.024  23.509  0.00  0.00    -0.265 OA
ATOM     20  C   UNL d   1     -43.991   9.647  23.698  0.00  0.00     0.068 C 
ENDBRANCH  14  17
ENDBRANCH   8  11
ENDBRANCH   7   8
ENDBRANCH   2   7
BRANCH   1  21
ATOM     21  C   UNL d   1     -49.121  13.487  22.481  0.00  0.00     0.102 A 
ATOM     22  N   UNL d   1     -49.283  13.017  23.151  0.00  0.00    -0.162 NA
ATOM     23  N   UNL d   1     -49.847  12.404  23.088  0.00  0.00    -0.189 N 
ATOM     24  C   UNL d   1     -50.117  11.863  23.636  0.00  0.00     0.224 A 
ATOM     25  C   UNL d   1     -50.242  12.264  22.368  0.00  0.00     0.187 A 
ATOM     26  N   UNL d   1     -50.671  11.389  23.274  0.00  0.00    -0.124 NA
ATOM     27  N   UNL d   1     -50.742  11.643  22.495  0.00  0.00    -0.127 NA
ATOM     28  C   UNL d   1     -50.063  12.749  21.709  0.00  0.00     0.042 A 
ATOM     29  C   UNL d   1     -49.503  13.357  21.772  0.00  0.00     0.024 A 
ENDBRANCH   1  21
TORSDOF 5
ENDMDL
