MODEL 1
REMARK VINA RESULT:       0.1      0.000      0.000
REMARK  7 active torsions:
REMARK  status: ('A' for Active; 'I' for Inactive)
REMARK    1  A    between atoms: C_20  and  N_1 
REMARK       I    between atoms: C_6  and  N_7 
REMARK    2  A    between atoms: C_10  and  C_6 
REMARK    3  A    between atoms: N_7  and  C_24 
REMARK    4  A    between atoms: C_9  and  N_7 
REMARK    5  A    between atoms: O_29  and  C_11 
REMARK    6  A    between atoms: C_23  and  C_20 
REMARK    7  A    between atoms: C_24  and  C_23 
ROOT
ATOM      1  C   UNL d   1      31.698  17.515 -23.756  0.00  0.00     0.085 C 
ENDROOT
BRANCH   1   2
ATOM      2  N   UNL d   1      31.143  17.155 -24.234  0.00  0.00    -0.271 N 
ATOM      3  C   UNL d   1      31.331  16.441 -24.607  0.00  0.00     0.271 C 
ATOM      4  O   UNL d   1      30.774  16.077 -25.088  0.00  0.00    -0.266 OA
BRANCH   3   5
ATOM      5  C   UNL d   1      32.073  16.098 -24.495  0.00  0.00     0.086 A 
ATOM      6  S   UNL d   1      32.535  15.706 -25.058  0.00  0.00    -0.082 SA
ATOM      7  C   UNL d   1      33.213  15.463 -24.710  0.00  0.00     0.036 A 
ATOM      8  C   UNL d   1      33.212  15.682 -23.936  0.00  0.00     0.008 A 
ATOM      9  C   UNL d   1      32.484  16.092 -23.784  0.00  0.00     0.012 A 
ENDBRANCH   3   5
BRANCH   2  10
ATOM     10  C   UNL d   1      30.404  17.496 -24.345  0.00  0.00     0.089 A 
ATOM     11  C   UNL d   1      29.778  17.327 -23.825  0.00  0.00     0.110 A 
ATOM     12  C   UNL d   1      29.044  17.666 -23.936  0.00  0.00     0.026 A 
ATOM     13  C   UNL d   1      28.913  18.184 -24.570  0.00  0.00     0.002 A 
ATOM     14  C   UNL d   1      29.531  18.349 -25.081  0.00  0.00     0.002 A 
ATOM     15  C   UNL d   1      28.171  18.527 -24.682  0.00  0.00     0.000 C 
ATOM     16  C   UNL d   1      30.266  18.010 -24.970  0.00  0.00     0.020 A 
BRANCH  11  17
ATOM     17  O   UNL d   1      29.896  16.820 -23.199  0.00  0.00    -0.327 OA
ATOM     18  C   UNL d   1      29.256  16.471 -22.831  0.00  0.00     0.181 C 
ENDBRANCH  11  17
ENDBRANCH   2  10
ENDBRANCH   1   2
BRANCH   1  19
ATOM     19  C   UNL d   1      31.874  18.337 -23.854  0.00  0.00     0.038 C 
BRANCH  19  20
ATOM     20  C   UNL d   1      32.649  18.620 -23.755  0.00  0.00     0.088 C 
BRANCH  20  21
ATOM     21  N   UNL d   1      32.781  19.361 -23.350  0.00  0.00    -0.240 N 
ATOM     22  C   UNL d   1      32.840  19.382 -22.528  0.00  0.00     0.267 A 
ATOM     23  C   UNL d   1      32.967  20.094 -22.127  0.00  0.00     0.057 A 
ATOM     24  O   UNL d   1      32.771  18.663 -22.072  0.00  0.00    -0.267 OA
ATOM     25  C   UNL d   1      33.025  20.114 -21.321  0.00  0.00     0.005 A 
ATOM     26  C   UNL d   1      33.033  20.792 -22.578  0.00  0.00     0.009 A 
ATOM     27  C   UNL d   1      33.152  20.834 -20.924  0.00  0.00     0.000 A 
ATOM     28  C   UNL d   1      33.218  21.519 -21.371  0.00  0.00     0.000 A 
ATOM     29  C   UNL d   1      33.160  21.499 -22.176  0.00  0.00     0.000 A 
ATOM     30  C   UNL d   1      33.226  22.193 -22.627  0.00  0.00     0.000 A 
ATOM     31  C   UNL d   1      33.166  22.172 -23.450  0.00  0.00     0.000 A 
ATOM     32  C   UNL d   1      33.040  21.456 -23.843  0.00  0.00     0.005 A 
ATOM     33  C   UNL d   1      32.974  20.771 -23.400  0.00  0.00     0.057 A 
ATOM     34  C   UNL d   1      32.847  20.051 -23.793  0.00  0.00     0.267 A 
ATOM     35  O   UNL d   1      32.787  20.030 -24.628  0.00  0.00    -0.267 OA
ENDBRANCH  20  21
ENDBRANCH  19  20
ENDBRANCH   1  19
TORSDOF 7
ENDMDL
