MODEL 1
REMARK VINA RESULT:      -3.0      0.000      0.000
REMARK  1 active torsions:
REMARK  status: ('A' for Active; 'I' for Inactive)
REMARK    1  A    between atoms: C_10  and  C_4 
ROOT
ATOM      1  N   UNL d   1      29.604  16.072 -23.430  0.00  0.00    -0.202 N 
ATOM      2  C   UNL d   1      30.005  16.696 -23.791  0.00  0.00     0.166 A 
ATOM      3  N   UNL d   1      30.174  15.526 -23.160  0.00  0.00    -0.163 NA
ATOM      4  C   UNL d   1      30.823  16.538 -23.745  0.00  0.00     0.055 A 
ATOM      5  C   UNL d   1      28.777  16.079 -23.392  0.00  0.00     0.143 A 
ATOM      6  C   UNL d   1      30.911  15.820 -23.358  0.00  0.00     0.104 A 
ATOM      7  N   UNL d   1      29.584  17.324 -24.113  0.00  0.00    -0.227 NA
ATOM      8  C   UNL d   1      28.354  16.712 -23.717  0.00  0.00     0.050 A 
ATOM      9  C   UNL d   1      28.761  17.340 -24.080  0.00  0.00     0.086 A 
ATOM     10 CL   UNL d   1      28.373  15.457 -23.033  0.00  0.00    -0.061 Cl
ATOM     11  C   UNL d   1      31.632  15.452 -23.193  0.00  0.00     0.023 C 
ATOM     12  C   UNL d   1      28.340  17.968 -24.402  0.00  0.00     0.021 C 
ENDROOT
BRANCH   4  13
ATOM     13  C   UNL d   1      31.429  17.016 -24.037  0.00  0.00     0.004 A 
ATOM     14  C   UNL d   1      31.704  16.908 -24.807  0.00  0.00     0.001 A 
ATOM     15  C   UNL d   1      32.307  17.386 -25.095  0.00  0.00     0.011 A 
ATOM     16  C   UNL d   1      32.640  17.973 -24.620  0.00  0.00     0.058 A 
ATOM     17  C   UNL d   1      32.367  18.082 -23.853  0.00  0.00     0.011 A 
ATOM     18 CL   UNL d   1      33.240  18.447 -24.911  0.00  0.00    -0.082 Cl
ATOM     19  C   UNL d   1      31.760  17.606 -23.556  0.00  0.00     0.001 A 
ENDBRANCH   4  13
TORSDOF 1
ENDMDL
MODEL 2
REMARK VINA RESULT:      -2.5      1.171      3.799
REMARK  1 active torsions:
REMARK  status: ('A' for Active; 'I' for Inactive)
REMARK    1  A    between atoms: C_10  and  C_4 
ROOT
ATOM      1  N   UNL d   1      31.669  17.401 -24.465  0.00  0.00    -0.202 N 
ATOM      2  C   UNL d   1      31.150  16.836 -24.160  0.00  0.00     0.166 A 
ATOM      3  N   UNL d   1      31.215  17.981 -24.855  0.00  0.00    -0.163 NA
ATOM      4  C   UNL d   1      30.374  17.067 -24.362  0.00  0.00     0.055 A 
ATOM      5  C   UNL d   1      32.485  17.316 -24.349  0.00  0.00     0.143 A 
ATOM      6  C   UNL d   1      30.429  17.767 -24.786  0.00  0.00     0.104 A 
ATOM      7  N   UNL d   1      31.441  16.191 -23.743  0.00  0.00    -0.227 NA
ATOM      8  C   UNL d   1      32.777  16.666 -23.929  0.00  0.00     0.050 A 
ATOM      9  C   UNL d   1      32.251  16.098 -23.623  0.00  0.00     0.086 A 
ATOM     10 CL   UNL d   1      33.007  17.877 -24.651  0.00  0.00    -0.061 Cl
ATOM     11  C   UNL d   1      29.790  18.189 -25.094  0.00  0.00     0.023 C 
ATOM     12  C   UNL d   1      32.542  15.453 -23.206  0.00  0.00     0.021 C 
ENDROOT
BRANCH   4  13
ATOM     13  C   UNL d   1      29.680  16.663 -24.169  0.00  0.00     0.004 A 
ATOM     14  C   UNL d   1      29.258  16.869 -23.491  0.00  0.00     0.001 A 
ATOM     15  C   UNL d   1      28.568  16.465 -23.302  0.00  0.00     0.011 A 
ATOM     16  C   UNL d   1      28.294  15.855 -23.784  0.00  0.00     0.058 A 
ATOM     17  C   UNL d   1      28.714  15.647 -24.459  0.00  0.00     0.011 A 
ATOM     18 CL   UNL d   1      27.607  15.455 -23.592  0.00  0.00    -0.082 Cl
ATOM     19  C   UNL d   1      29.408  16.049 -24.657  0.00  0.00     0.001 A 
ENDBRANCH   4  13
TORSDOF 1
ENDMDL
MODEL 3
REMARK VINA RESULT:      -2.3      1.401      2.096
REMARK  1 active torsions:
REMARK  status: ('A' for Active; 'I' for Inactive)
REMARK    1  A    between atoms: C_10  and  C_4 
ROOT
ATOM      1  N   UNL d   1      29.589  17.698 -24.642  0.00  0.00    -0.202 N 
ATOM      2  C   UNL d   1      29.993  17.127 -24.206  0.00  0.00     0.166 A 
ATOM      3  N   UNL d   1      30.156  18.170 -25.032  0.00  0.00    -0.163 NA
ATOM      4  C   UNL d   1      30.810  17.243 -24.324  0.00  0.00     0.055 A 
ATOM      5  C   UNL d   1      28.761  17.718 -24.630  0.00  0.00     0.143 A 
ATOM      6  C   UNL d   1      30.895  17.883 -24.831  0.00  0.00     0.104 A 
ATOM      7  N   UNL d   1      29.575  16.577 -23.760  0.00  0.00    -0.227 NA
ATOM      8  C   UNL d   1      28.341  17.165 -24.181  0.00  0.00     0.050 A 
ATOM      9  C   UNL d   1      28.751  16.589 -23.741  0.00  0.00     0.086 A 
ATOM     10 CL   UNL d   1      28.354  18.288 -25.065  0.00  0.00    -0.061 Cl
ATOM     11  C   UNL d   1      31.614  18.189 -25.096  0.00  0.00     0.023 C 
ATOM     12  C   UNL d   1      28.334  16.040 -23.295  0.00  0.00     0.021 C 
ENDROOT
BRANCH   4  13
ATOM     13  C   UNL d   1      31.419  16.795 -23.993  0.00  0.00     0.004 A 
ATOM     14  C   UNL d   1      31.650  16.086 -24.347  0.00  0.00     0.001 A 
ATOM     15  C   UNL d   1      32.256  15.643 -24.014  0.00  0.00     0.011 A 
ATOM     16  C   UNL d   1      32.636  15.900 -23.329  0.00  0.00     0.058 A 
ATOM     17  C   UNL d   1      32.408  16.606 -22.975  0.00  0.00     0.011 A 
ATOM     18 CL   UNL d   1      33.240  15.455 -23.001  0.00  0.00    -0.082 Cl
ATOM     19  C   UNL d   1      31.799  17.058 -23.303  0.00  0.00     0.001 A 
ENDBRANCH   4  13
TORSDOF 1
ENDMDL
MODEL 4
REMARK VINA RESULT:      -1.7      1.239      1.720
REMARK  1 active torsions:
REMARK  status: ('A' for Active; 'I' for Inactive)
REMARK    1  A    between atoms: C_10  and  C_4 
ROOT
ATOM      1  N   UNL d   1      31.246  16.605 -23.295  0.00  0.00    -0.202 N 
ATOM      2  C   UNL d   1      31.300  17.295 -23.745  0.00  0.00     0.166 A 
ATOM      3  N   UNL d   1      31.975  16.496 -22.906  0.00  0.00    -0.163 NA
ATOM      4  C   UNL d   1      32.064  17.613 -23.635  0.00  0.00     0.055 A 
ATOM      5  C   UNL d   1      30.543  16.167 -23.296  0.00  0.00     0.143 A 
ATOM      6  C   UNL d   1      32.465  17.115 -23.121  0.00  0.00     0.104 A 
ATOM      7  N   UNL d   1      30.659  17.546 -24.193  0.00  0.00    -0.227 NA
ATOM      8  C   UNL d   1      29.898  16.421 -23.747  0.00  0.00     0.050 A 
ATOM      9  C   UNL d   1      29.956  17.117 -24.200  0.00  0.00     0.086 A 
ATOM     10 CL   UNL d   1      30.484  15.477 -22.848  0.00  0.00    -0.061 Cl
ATOM     11  C   UNL d   1      33.241  17.223 -22.861  0.00  0.00     0.023 C 
ATOM     12  C   UNL d   1      29.315  17.368 -24.648  0.00  0.00     0.021 C 
ENDROOT
BRANCH   4  13
ATOM     13  C   UNL d   1      32.359  18.302 -23.981  0.00  0.00     0.004 A 
ATOM     14  C   UNL d   1      32.695  18.273 -24.734  0.00  0.00     0.001 A 
ATOM     15  C   UNL d   1      32.988  18.960 -25.077  0.00  0.00     0.011 A 
ATOM     16  C   UNL d   1      32.948  19.679 -24.674  0.00  0.00     0.058 A 
ATOM     17  C   UNL d   1      32.613  19.709 -23.924  0.00  0.00     0.011 A 
ATOM     18 CL   UNL d   1      33.240  20.361 -25.018  0.00  0.00    -0.082 Cl
ATOM     19  C   UNL d   1      32.317  19.023 -23.572  0.00  0.00     0.001 A 
ENDBRANCH   4  13
TORSDOF 1
ENDMDL
MODEL 5
REMARK VINA RESULT:      -1.3      5.284      6.797
REMARK  1 active torsions:
REMARK  status: ('A' for Active; 'I' for Inactive)
REMARK    1  A    between atoms: C_10  and  C_4 
ROOT
ATOM      1  N   UNL d   1      32.988  21.419 -22.625  0.00  0.00    -0.202 N 
ATOM      2  C   UNL d   1      32.901  21.515 -21.810  0.00  0.00     0.166 A 
ATOM      3  N   UNL d   1      32.887  22.167 -22.981  0.00  0.00    -0.163 NA
ATOM      4  C   UNL d   1      32.747  22.321 -21.660  0.00  0.00     0.055 A 
ATOM      5  C   UNL d   1      33.146  20.669 -22.939  0.00  0.00     0.143 A 
ATOM      6  C   UNL d   1      32.741  22.707 -22.385  0.00  0.00     0.104 A 
ATOM      7  N   UNL d   1      32.973  20.867 -21.310  0.00  0.00    -0.227 NA
ATOM      8  C   UNL d   1      33.218  20.018 -22.434  0.00  0.00     0.050 A 
ATOM      9  C   UNL d   1      33.130  20.117 -21.612  0.00  0.00     0.086 A 
ATOM     10 CL   UNL d   1      33.233  20.570 -23.752  0.00  0.00    -0.061 Cl
ATOM     11  C   UNL d   1      32.608  23.514 -22.493  0.00  0.00     0.023 C 
ATOM     12  C   UNL d   1      33.201  19.469 -21.112  0.00  0.00     0.021 C 
ENDROOT
BRANCH   4  13
ATOM     13  C   UNL d   1      32.624  22.664 -20.920  0.00  0.00     0.004 A 
ATOM     14  C   UNL d   1      31.891  22.997 -20.737  0.00  0.00     0.001 A 
ATOM     15  C   UNL d   1      31.771  23.338 -19.999  0.00  0.00     0.011 A 
ATOM     16  C   UNL d   1      32.376  23.350 -19.440  0.00  0.00     0.058 A 
ATOM     17  C   UNL d   1      33.107  23.019 -19.620  0.00  0.00     0.011 A 
ATOM     18 CL   UNL d   1      32.253  23.690 -18.706  0.00  0.00    -0.082 Cl
ATOM     19  C   UNL d   1      33.236  22.674 -20.360  0.00  0.00     0.001 A 
ENDBRANCH   4  13
TORSDOF 1
ENDMDL
MODEL 6
REMARK VINA RESULT:      -1.0      2.873      4.528
REMARK  1 active torsions:
REMARK  status: ('A' for Active; 'I' for Inactive)
REMARK    1  A    between atoms: C_10  and  C_4 
ROOT
ATOM      1  N   UNL d   1      33.015  20.203 -23.167  0.00  0.00    -0.202 N 
ATOM      2  C   UNL d   1      32.939  19.451 -22.835  0.00  0.00     0.166 A 
ATOM      3  N   UNL d   1      32.915  20.128 -23.992  0.00  0.00    -0.163 NA
ATOM      4  C   UNL d   1      32.792  18.911 -23.453  0.00  0.00     0.055 A 
ATOM      5  C   UNL d   1      33.164  20.856 -22.681  0.00  0.00     0.143 A 
ATOM      6  C   UNL d   1      32.780  19.338 -24.154  0.00  0.00     0.104 A 
ATOM      7  N   UNL d   1      33.011  19.351 -22.022  0.00  0.00    -0.227 NA
ATOM      8  C   UNL d   1      33.236  20.754 -21.863  0.00  0.00     0.050 A 
ATOM      9  C   UNL d   1      33.159  19.995 -21.531  0.00  0.00     0.086 A 
ATOM     10 CL   UNL d   1      33.241  21.608 -23.009  0.00  0.00    -0.061 Cl
ATOM     11  C   UNL d   1      32.653  19.019 -24.904  0.00  0.00     0.023 C 
ATOM     12  C   UNL d   1      33.231  19.895 -20.718  0.00  0.00     0.021 C 
ENDROOT
BRANCH   4  13
ATOM     13  C   UNL d   1      32.680  18.097 -23.372  0.00  0.00     0.004 A 
ATOM     14  C   UNL d   1      32.010  17.739 -23.694  0.00  0.00     0.001 A 
ATOM     15  C   UNL d   1      31.900  16.929 -23.612  0.00  0.00     0.011 A 
ATOM     16  C   UNL d   1      32.455  16.471 -23.210  0.00  0.00     0.058 A 
ATOM     17  C   UNL d   1      33.123  16.825 -22.888  0.00  0.00     0.011 A 
ATOM     18 CL   UNL d   1      32.343  15.664 -23.130  0.00  0.00    -0.082 Cl
ATOM     19  C   UNL d   1      33.241  17.639 -22.966  0.00  0.00     0.001 A 
ENDBRANCH   4  13
TORSDOF 1
ENDMDL
