MODEL 1
REMARK VINA RESULT:      12.6      0.000      0.000
REMARK  1 active torsions:
REMARK  status: ('A' for Active; 'I' for Inactive)
REMARK    1  A    between atoms: C_4  and  C_1 
ROOT
ATOM      1  C   UNL d   1     -54.870-102.050 -37.840  0.00  0.00     0.036 A 
ATOM      2  C   UNL d   1     -54.787-101.351 -37.401  0.00  0.00     0.061 A 
ATOM      3  C   UNL d   1     -54.943-102.761 -37.437  0.00  0.00     0.004 A 
ATOM      4  C   UNL d   1     -54.776-101.367 -36.588  0.00  0.00     0.023 A 
ATOM      5  C   UNL d   1     -54.849-102.091 -36.192  0.00  0.00     0.059 A 
ATOM      6 CL   UNL d   1     -54.714-100.640 -37.804  0.00  0.00    -0.082 Cl
ATOM      7  C   UNL d   1     -54.932-102.783 -36.609  0.00  0.00     0.011 A 
ATOM      8 CL   UNL d   1     -54.837-102.099 -35.372  0.00  0.00    -0.082 Cl
ENDROOT
BRANCH   1   9
ATOM      9  C   UNL d   1     -54.882-102.043 -38.665  0.00  0.00     0.136 A 
ATOM     10  S   UNL d   1     -55.062-102.676 -39.163  0.00  0.00    -0.024 SA
ATOM     11  C   UNL d   1     -55.006-102.420 -39.946  0.00  0.00     0.236 A 
ATOM     12  N   UNL d   1     -55.139-102.871 -40.624  0.00  0.00    -0.118 N 
ATOM     13  N   UNL d   1     -54.787-101.608 -39.941  0.00  0.00    -0.119 NA
ATOM     14  N   UNL d   1     -54.711-101.376 -39.153  0.00  0.00    -0.139 NA
ENDBRANCH   1   9
TORSDOF 1
ENDMDL
