MODEL 1
REMARK VINA RESULT:      -4.9      0.000      0.000
REMARK  7 active torsions:
REMARK  status: ('A' for Active; 'I' for Inactive)
REMARK    1  A    between atoms: C_10  and  N_1 
REMARK    2  A    between atoms: S_12  and  C_2 
REMARK    3  A    between atoms: S_3  and  N_11 
REMARK    4  A    between atoms: C_7  and  S_3 
REMARK    5  A    between atoms: N_11  and  C_15 
REMARK    6  A    between atoms: C_19  and  S_12 
REMARK    7  A    between atoms: C_15  and  C_19 
ROOT
ATOM      1  C   UNL d   1      57.778  -0.426  30.210  0.00  0.00     0.060 C 
ENDROOT
BRANCH   1   2
ATOM      2  C   UNL d   1      57.637  -0.412  31.007  0.00  0.00     0.119 C 
BRANCH   2   3
ATOM      3  N   UNL d   1      56.983  -0.811  31.330  0.00  0.00    -0.156 NA
BRANCH   3   4
ATOM      4  S   UNL d   1      56.624  -0.526  32.017  0.00  0.00     0.285 S 
ATOM      5  O   UNL d   1      56.380  -1.319  32.227  0.00  0.00    -0.198 OA
ATOM      6  O   UNL d   1      56.849   0.254  31.834  0.00  0.00    -0.198 OA
BRANCH   4   7
ATOM      7  C   UNL d   1      56.251  -0.253  32.723  0.00  0.00     0.105 A 
ATOM      8  C   UNL d   1      55.520  -0.558  32.915  0.00  0.00     0.013 A 
ATOM      9  C   UNL d   1      55.150  -0.303  33.594  0.00  0.00     0.001 A 
ATOM     10  C   UNL d   1      55.514   0.262  34.084  0.00  0.00     0.000 A 
ATOM     11  C   UNL d   1      56.242   0.555  33.876  0.00  0.00     0.001 A 
ATOM     12  C   UNL d   1      55.128   0.523  34.783  0.00  0.00     0.000 C 
ATOM     13  C   UNL d   1      56.615   0.312  33.213  0.00  0.00     0.013 A 
ENDBRANCH   4   7
ENDBRANCH   3   4
ENDBRANCH   2   3
ENDBRANCH   1   2
BRANCH   1  14
ATOM     14  S   UNL d   1      58.470  -0.699  29.916  0.00  0.00    -0.045 SA
BRANCH  14  15
ATOM     15  C   UNL d   1      58.916  -0.247  29.395  0.00  0.00     0.219 A 
ATOM     16  N   UNL d   1      59.470  -0.606  28.930  0.00  0.00    -0.186 N 
ATOM     17  N   UNL d   1      59.833  -0.027  28.464  0.00  0.00    -0.038 NA
ATOM     18  N   UNL d   1      59.486   0.681  28.662  0.00  0.00    -0.022 NA
ATOM     19  N   UNL d   1      58.934   0.559  29.220  0.00  0.00    -0.101 NA
BRANCH  16  20
ATOM     20  C   UNL d   1      59.639  -1.412  28.925  0.00  0.00     0.087 A 
ATOM     21  C   UNL d   1      60.267  -1.715  29.355  0.00  0.00     0.019 A 
ATOM     22  C   UNL d   1      60.435  -2.531  29.347  0.00  0.00     0.002 A 
ATOM     23  C   UNL d   1      59.968  -3.047  28.903  0.00  0.00     0.000 A 
ATOM     24  C   UNL d   1      59.334  -2.735  28.470  0.00  0.00     0.002 A 
ATOM     25  C   UNL d   1      59.168  -1.921  28.479  0.00  0.00     0.019 A 
ENDBRANCH  16  20
ENDBRANCH  14  15
ENDBRANCH   1  14
TORSDOF 7
ENDMDL
