MODEL 1
REMARK VINA RESULT:      -4.7      0.000      0.000
REMARK  4 active torsions:
REMARK  status: ('A' for Active; 'I' for Inactive)
REMARK    1  A    between atoms: C_5  and  N_1 
REMARK    2  A    between atoms: C_7  and  C_5 
REMARK    3  A    between atoms: O_10  and  C_8 
REMARK    4  A    between atoms: C_14  and  O_10 
ROOT
ATOM      1  C   UNL d   1      56.750   0.588  32.059  0.00  0.00     0.086 C 
ENDROOT
BRANCH   1   2
ATOM      2  N   UNL d   1      57.510   0.621  31.746  0.00  0.00    -0.268 N 
ATOM      3  C   UNL d   1      58.217   0.651  32.182  0.00  0.00     0.296 A 
ATOM      4  S   UNL d   1      58.842   0.678  31.643  0.00  0.00    -0.025 SA
ATOM      5  O   UNL d   1      58.283   0.653  33.004  0.00  0.00    -0.259 OA
ATOM      6  C   UNL d   1      58.530   0.665  30.882  0.00  0.00     0.050 A 
ATOM      7  C   UNL d   1      57.704   0.630  30.942  0.00  0.00     0.073 A 
ATOM      8  C   UNL d   1      58.883   0.681  30.128  0.00  0.00     0.008 A 
ATOM      9  C   UNL d   1      57.239   0.610  30.267  0.00  0.00     0.018 A 
ATOM     10  C   UNL d   1      57.594   0.626  29.522  0.00  0.00     0.002 A 
ATOM     11  C   UNL d   1      58.409   0.661  29.453  0.00  0.00     0.001 A 
ENDBRANCH   1   2
BRANCH   1  12
ATOM     12  C   UNL d   1      56.454  -0.133  32.339  0.00  0.00     0.040 A 
ATOM     13  C   UNL d   1      55.845  -0.126  32.889  0.00  0.00     0.101 A 
ATOM     14  C   UNL d   1      55.551  -0.837  33.166  0.00  0.00     0.025 A 
ATOM     15  C   UNL d   1      55.864  -1.560  32.896  0.00  0.00     0.002 A 
ATOM     16  C   UNL d   1      56.475  -1.553  32.343  0.00  0.00     0.000 A 
ATOM     17  C   UNL d   1      56.771  -0.833  32.063  0.00  0.00     0.004 A 
BRANCH  13  18
ATOM     18  O   UNL d   1      55.557   0.603  33.138  0.00  0.00    -0.307 OA
BRANCH  18  19
ATOM     19  C   UNL d   1      55.045   0.646  33.787  0.00  0.00     0.100 C 
ATOM     20  C   UNL d   1      55.358   0.682  34.553  0.00  0.00     0.027 C 
ATOM     21  C   UNL d   1      54.233   0.653  33.675  0.00  0.00     0.027 C 
ENDBRANCH  18  19
ENDBRANCH  13  18
ENDBRANCH   1  12
TORSDOF 4
ENDMDL
MODEL 2
REMARK VINA RESULT:      -3.5      1.465      2.030
REMARK  4 active torsions:
REMARK  status: ('A' for Active; 'I' for Inactive)
REMARK    1  A    between atoms: C_5  and  N_1 
REMARK    2  A    between atoms: C_7  and  C_5 
REMARK    3  A    between atoms: O_10  and  C_8 
REMARK    4  A    between atoms: C_14  and  O_10 
ROOT
ATOM      1  C   UNL d   1      57.931   0.648  31.229  0.00  0.00     0.086 C 
ENDROOT
BRANCH   1   2
ATOM      2  N   UNL d   1      58.381   0.660  30.540  0.00  0.00    -0.268 N 
ATOM      3  C   UNL d   1      58.087   0.671  29.763  0.00  0.00     0.296 A 
ATOM      4  S   UNL d   1      58.734   0.681  29.250  0.00  0.00    -0.025 SA
ATOM      5  O   UNL d   1      57.292   0.672  29.544  0.00  0.00    -0.259 OA
ATOM      6  C   UNL d   1      59.422   0.676  29.701  0.00  0.00     0.050 A 
ATOM      7  C   UNL d   1      59.208   0.663  30.501  0.00  0.00     0.073 A 
ATOM      8  C   UNL d   1      60.230   0.682  29.496  0.00  0.00     0.008 A 
ATOM      9  C   UNL d   1      59.783   0.656  31.086  0.00  0.00     0.018 A 
ATOM     10  C   UNL d   1      60.581   0.662  30.877  0.00  0.00     0.002 A 
ATOM     11  C   UNL d   1      60.803   0.675  30.089  0.00  0.00     0.001 A 
ENDBRANCH   1   2
BRANCH   1  12
ATOM     12  C   UNL d   1      57.497  -0.029  31.421  0.00  0.00     0.040 A 
ATOM     13  C   UNL d   1      57.004  -0.013  32.077  0.00  0.00     0.101 A 
ATOM     14  C   UNL d   1      56.574  -0.682  32.269  0.00  0.00     0.025 A 
ATOM     15  C   UNL d   1      56.633  -1.372  31.806  0.00  0.00     0.002 A 
ATOM     16  C   UNL d   1      57.132  -1.375  31.150  0.00  0.00     0.000 A 
ATOM     17  C   UNL d   1      57.566  -0.698  30.957  0.00  0.00     0.004 A 
BRANCH  13  18
ATOM     18  O   UNL d   1      56.965   0.682  32.515  0.00  0.00    -0.307 OA
BRANCH  18  19
ATOM     19  C   UNL d   1      56.653   0.672  33.281  0.00  0.00     0.100 C 
ATOM     20  C   UNL d   1      55.832   0.681  33.389  0.00  0.00     0.027 C 
ATOM     21  C   UNL d   1      57.151   0.654  33.931  0.00  0.00     0.027 C 
ENDBRANCH  18  19
ENDBRANCH  13  18
ENDBRANCH   1  12
TORSDOF 4
ENDMDL
MODEL 3
REMARK VINA RESULT:      -3.4      2.091      2.894
REMARK  4 active torsions:
REMARK  status: ('A' for Active; 'I' for Inactive)
REMARK    1  A    between atoms: C_5  and  N_1 
REMARK    2  A    between atoms: C_7  and  C_5 
REMARK    3  A    between atoms: O_10  and  C_8 
REMARK    4  A    between atoms: C_14  and  O_10 
ROOT
ATOM      1  C   UNL d   1      57.654  -0.545  30.275  0.00  0.00     0.086 C 
ENDROOT
BRANCH   1   2
ATOM      2  N   UNL d   1      58.158  -0.651  29.633  0.00  0.00    -0.268 N 
ATOM      3  C   UNL d   1      58.334  -0.085  29.051  0.00  0.00     0.296 A 
ATOM      4  S   UNL d   1      58.862  -0.430  28.518  0.00  0.00    -0.025 SA
ATOM      5  O   UNL d   1      58.034   0.682  29.011  0.00  0.00    -0.259 OA
ATOM      6  C   UNL d   1      59.014  -1.200  28.765  0.00  0.00     0.050 A 
ATOM      7  C   UNL d   1      58.580  -1.340  29.457  0.00  0.00     0.073 A 
ATOM      8  C   UNL d   1      59.495  -1.806  28.456  0.00  0.00     0.008 A 
ATOM      9  C   UNL d   1      58.621  -2.068  29.833  0.00  0.00     0.018 A 
ATOM     10  C   UNL d   1      59.098  -2.665  29.522  0.00  0.00     0.002 A 
ATOM     11  C   UNL d   1      59.532  -2.535  28.839  0.00  0.00     0.001 A 
ENDBRANCH   1   2
BRANCH   1  12
ATOM     12  C   UNL d   1      57.921  -0.133  30.942  0.00  0.00     0.040 A 
ATOM     13  C   UNL d   1      57.437  -0.089  31.602  0.00  0.00     0.101 A 
ATOM     14  C   UNL d   1      57.699   0.317  32.262  0.00  0.00     0.025 A 
ATOM     15  C   UNL d   1      58.448   0.682  32.265  0.00  0.00     0.002 A 
ATOM     16  C   UNL d   1      58.925   0.630  31.595  0.00  0.00     0.000 A 
ATOM     17  C   UNL d   1      58.658   0.219  30.929  0.00  0.00     0.004 A 
BRANCH  13  18
ATOM     18  O   UNL d   1      56.703  -0.459  31.570  0.00  0.00    -0.307 OA
BRANCH  18  19
ATOM     19  C   UNL d   1      56.266  -0.574  32.263  0.00  0.00     0.100 C 
ATOM     20  C   UNL d   1      55.851   0.060  32.596  0.00  0.00     0.027 C 
ATOM     21  C   UNL d   1      56.243  -1.312  32.620  0.00  0.00     0.027 C 
ENDBRANCH  18  19
ENDBRANCH  13  18
ENDBRANCH   1  12
TORSDOF 4
ENDMDL
MODEL 4
REMARK VINA RESULT:      -3.3      1.725      4.205
REMARK  4 active torsions:
REMARK  status: ('A' for Active; 'I' for Inactive)
REMARK    1  A    between atoms: C_5  and  N_1 
REMARK    2  A    between atoms: C_7  and  C_5 
REMARK    3  A    between atoms: O_10  and  C_8 
REMARK    4  A    between atoms: C_14  and  O_10 
ROOT
ATOM      1  C   UNL d   1      58.092  -0.729  30.802  0.00  0.00     0.086 C 
ENDROOT
BRANCH   1   2
ATOM      2  N   UNL d   1      57.851  -0.265  31.438  0.00  0.00    -0.268 N 
ATOM      3  C   UNL d   1      58.261   0.386  31.752  0.00  0.00     0.296 A 
ATOM      4  S   UNL d   1      57.816   0.682  32.382  0.00  0.00    -0.025 SA
ATOM      5  O   UNL d   1      58.982   0.682  31.484  0.00  0.00    -0.259 OA
ATOM      6  C   UNL d   1      57.138   0.223  32.459  0.00  0.00     0.050 A 
ATOM      7  C   UNL d   1      57.156  -0.366  31.875  0.00  0.00     0.073 A 
ATOM      8  C   UNL d   1      56.493   0.254  32.986  0.00  0.00     0.008 A 
ATOM      9  C   UNL d   1      56.546  -0.911  31.816  0.00  0.00     0.018 A 
ATOM     10  C   UNL d   1      55.910  -0.876  32.340  0.00  0.00     0.002 A 
ATOM     11  C   UNL d   1      55.884  -0.298  32.920  0.00  0.00     0.001 A 
ENDBRANCH   1   2
BRANCH   1  12
ATOM     12  C   UNL d   1      58.128  -0.398  30.045  0.00  0.00     0.040 A 
ATOM     13  C   UNL d   1      58.467  -0.831  29.437  0.00  0.00     0.101 A 
ATOM     14  C   UNL d   1      58.503  -0.506  28.687  0.00  0.00     0.025 A 
ATOM     15  C   UNL d   1      58.200   0.256  28.541  0.00  0.00     0.002 A 
ATOM     16  C   UNL d   1      57.862   0.682  29.160  0.00  0.00     0.000 A 
ATOM     17  C   UNL d   1      57.826   0.351  29.918  0.00  0.00     0.004 A 
BRANCH  13  18
ATOM     18  O   UNL d   1      58.757  -1.581  29.611  0.00  0.00    -0.307 OA
BRANCH  18  19
ATOM     19  C   UNL d   1      59.159  -2.015  29.031  0.00  0.00     0.100 C 
ATOM     20  C   UNL d   1      58.739  -2.540  28.549  0.00  0.00     0.027 C 
ATOM     21  C   UNL d   1      59.968  -1.926  28.934  0.00  0.00     0.027 C 
ENDBRANCH  18  19
ENDBRANCH  13  18
ENDBRANCH   1  12
TORSDOF 4
ENDMDL
MODEL 5
REMARK VINA RESULT:      -3.2      1.250      3.649
REMARK  4 active torsions:
REMARK  status: ('A' for Active; 'I' for Inactive)
REMARK    1  A    between atoms: C_5  and  N_1 
REMARK    2  A    between atoms: C_7  and  C_5 
REMARK    3  A    between atoms: O_10  and  C_8 
REMARK    4  A    between atoms: C_14  and  O_10 
ROOT
ATOM      1  C   UNL d   1      56.464   0.601  32.483  0.00  0.00     0.086 C 
ENDROOT
BRANCH   1   2
ATOM      2  N   UNL d   1      56.295   0.628  33.288  0.00  0.00    -0.268 N 
ATOM      3  C   UNL d   1      56.851   0.651  33.904  0.00  0.00     0.296 A 
ATOM      4  S   UNL d   1      56.435   0.674  34.616  0.00  0.00    -0.025 SA
ATOM      5  O   UNL d   1      57.671   0.651  33.820  0.00  0.00    -0.259 OA
ATOM      6  C   UNL d   1      55.629   0.665  34.447  0.00  0.00     0.050 A 
ATOM      7  C   UNL d   1      55.539   0.637  33.624  0.00  0.00     0.073 A 
ATOM      8  C   UNL d   1      54.951   0.679  34.931  0.00  0.00     0.008 A 
ATOM      9  C   UNL d   1      54.791   0.622  33.288  0.00  0.00     0.018 A 
ATOM     10  C   UNL d   1      54.123   0.636  33.772  0.00  0.00     0.002 A 
ATOM     11  C   UNL d   1      54.202   0.664  34.587  0.00  0.00     0.001 A 
ENDBRANCH   1   2
BRANCH   1  12
ATOM     12  C   UNL d   1      56.628  -0.126  32.123  0.00  0.00     0.040 A 
ATOM     13  C   UNL d   1      57.094  -0.140  31.449  0.00  0.00     0.101 A 
ATOM     14  C   UNL d   1      57.257  -0.858  31.092  0.00  0.00     0.025 A 
ATOM     15  C   UNL d   1      56.955  -1.567  31.408  0.00  0.00     0.002 A 
ATOM     16  C   UNL d   1      56.487  -1.539  32.086  0.00  0.00     0.000 A 
ATOM     17  C   UNL d   1      56.323  -0.812  32.446  0.00  0.00     0.004 A 
BRANCH  13  18
ATOM     18  O   UNL d   1      57.379   0.575  31.160  0.00  0.00    -0.307 OA
BRANCH  18  19
ATOM     19  C   UNL d   1      57.956   0.582  30.566  0.00  0.00     0.100 C 
ATOM     20  C   UNL d   1      58.753   0.488  30.768  0.00  0.00     0.027 C 
ATOM     21  C   UNL d   1      57.741   0.682  29.781  0.00  0.00     0.027 C 
ENDBRANCH  18  19
ENDBRANCH  13  18
ENDBRANCH   1  12
TORSDOF 4
ENDMDL
MODEL 6
REMARK VINA RESULT:      -2.6      2.988      4.168
REMARK  4 active torsions:
REMARK  status: ('A' for Active; 'I' for Inactive)
REMARK    1  A    between atoms: C_5  and  N_1 
REMARK    2  A    between atoms: C_7  and  C_5 
REMARK    3  A    between atoms: O_10  and  C_8 
REMARK    4  A    between atoms: C_14  and  O_10 
ROOT
ATOM      1  C   UNL d   1      58.869  -1.401  29.930  0.00  0.00     0.086 C 
ENDROOT
BRANCH   1   2
ATOM      2  N   UNL d   1      59.397  -1.877  29.516  0.00  0.00    -0.268 N 
ATOM      3  C   UNL d   1      60.190  -1.695  29.346  0.00  0.00     0.296 A 
ATOM      4  S   UNL d   1      60.507  -2.328  28.922  0.00  0.00    -0.025 SA
ATOM      5  O   UNL d   1      60.588  -1.006  29.562  0.00  0.00    -0.259 OA
ATOM      6  C   UNL d   1      59.920  -2.898  28.828  0.00  0.00     0.050 A 
ATOM      7  C   UNL d   1      59.230  -2.621  29.195  0.00  0.00     0.073 A 
ATOM      8  C   UNL d   1      59.913  -3.643  28.455  0.00  0.00     0.008 A 
ATOM      9  C   UNL d   1      58.547  -3.075  29.192  0.00  0.00     0.018 A 
ATOM     10  C   UNL d   1      58.545  -3.812  28.821  0.00  0.00     0.002 A 
ATOM     11  C   UNL d   1      59.222  -4.094  28.456  0.00  0.00     0.001 A 
ENDBRANCH   1   2
BRANCH   1  12
ATOM     12  C   UNL d   1      58.589  -0.704  29.584  0.00  0.00     0.040 A 
ATOM     13  C   UNL d   1      58.140  -0.187  30.036  0.00  0.00     0.101 A 
ATOM     14  C   UNL d   1      57.863   0.503  29.696  0.00  0.00     0.025 A 
ATOM     15  C   UNL d   1      58.032   0.681  28.900  0.00  0.00     0.002 A 
ATOM     16  C   UNL d   1      58.485   0.154  28.456  0.00  0.00     0.000 A 
ATOM     17  C   UNL d   1      58.764  -0.543  28.802  0.00  0.00     0.004 A 
BRANCH  13  18
ATOM     18  O   UNL d   1      57.988  -0.390  30.818  0.00  0.00    -0.307 OA
BRANCH  18  19
ATOM     19  C   UNL d   1      57.703   0.181  31.346  0.00  0.00     0.100 C 
ATOM     20  C   UNL d   1      58.237   0.663  31.756  0.00  0.00     0.027 C 
ATOM     21  C   UNL d   1      56.897   0.269  31.464  0.00  0.00     0.027 C 
ENDBRANCH  18  19
ENDBRANCH  13  18
ENDBRANCH   1  12
TORSDOF 4
ENDMDL
MODEL 7
REMARK VINA RESULT:      -1.8      1.562      4.250
REMARK  4 active torsions:
REMARK  status: ('A' for Active; 'I' for Inactive)
REMARK    1  A    between atoms: C_5  and  N_1 
REMARK    2  A    between atoms: C_7  and  C_5 
REMARK    3  A    between atoms: O_10  and  C_8 
REMARK    4  A    between atoms: C_14  and  O_10 
ROOT
ATOM      1  C   UNL d   1      58.284  -0.241  31.225  0.00  0.00     0.086 C 
ENDROOT
BRANCH   1   2
ATOM      2  N   UNL d   1      57.605  -0.472  31.630  0.00  0.00    -0.268 N 
ATOM      3  C   UNL d   1      57.082  -1.075  31.402  0.00  0.00     0.296 A 
ATOM      4  S   UNL d   1      56.482  -1.113  31.969  0.00  0.00    -0.025 SA
ATOM      5  O   UNL d   1      57.149  -1.551  30.732  0.00  0.00    -0.259 OA
ATOM      6  C   UNL d   1      56.630  -0.541  32.542  0.00  0.00     0.050 A 
ATOM      7  C   UNL d   1      57.326  -0.141  32.334  0.00  0.00     0.073 A 
ATOM      8  C   UNL d   1      56.224  -0.321  33.236  0.00  0.00     0.008 A 
ATOM      9  C   UNL d   1      57.613   0.465  32.807  0.00  0.00     0.018 A 
ATOM     10  C   UNL d   1      57.208   0.679  33.493  0.00  0.00     0.002 A 
ATOM     11  C   UNL d   1      56.519   0.289  33.705  0.00  0.00     0.001 A 
ENDBRANCH   1   2
BRANCH   1  12
ATOM     12  C   UNL d   1      58.219   0.068  30.461  0.00  0.00     0.040 A 
ATOM     13  C   UNL d   1      58.885   0.089  29.982  0.00  0.00     0.101 A 
ATOM     14  C   UNL d   1      58.823   0.394  29.226  0.00  0.00     0.025 A 
ATOM     15  C   UNL d   1      58.094   0.682  28.943  0.00  0.00     0.002 A 
ATOM     16  C   UNL d   1      57.433   0.656  29.434  0.00  0.00     0.000 A 
ATOM     17  C   UNL d   1      57.497   0.346  30.199  0.00  0.00     0.004 A 
BRANCH  13  18
ATOM     18  O   UNL d   1      59.591  -0.202  30.288  0.00  0.00    -0.307 OA
BRANCH  18  19
ATOM     19  C   UNL d   1      60.310  -0.010  29.926  0.00  0.00     0.100 C 
ATOM     20  C   UNL d   1      60.509  -0.355  29.200  0.00  0.00     0.027 C 
ATOM     21  C   UNL d   1      60.824   0.520  30.282  0.00  0.00     0.027 C 
ENDBRANCH  18  19
ENDBRANCH  13  18
ENDBRANCH   1  12
TORSDOF 4
ENDMDL
