MODEL 1
REMARK VINA RESULT:      33.0      0.000      0.000
REMARK  6 active torsions:
REMARK  status: ('A' for Active; 'I' for Inactive)
REMARK    1  A    between atoms: C_9  and  N_1 
REMARK    2  A    between atoms: N_2  and  C_8 
REMARK       I    between atoms: C_3  and  N_5 
REMARK    3  A    between atoms: C_12  and  C_3 
REMARK    4  A    between atoms: C_4  and  C_11 
REMARK       I    between atoms: N_6  and  C_4 
REMARK    5  A    between atoms: N_5  and  C_7 
REMARK    6  A    between atoms: C_10  and  N_6 
ROOT
ATOM      1  C   UNL d   1      45.240 -15.514  43.922  0.00  0.00     0.121 A 
ATOM      2  C   UNL d   1      45.502 -14.751  43.753  0.00  0.00     0.105 A 
ATOM      3  N   UNL d   1      44.373 -15.046  44.952  0.00  0.00    -0.241 NA
ATOM      4  C   UNL d   1      45.180 -14.115  44.209  0.00  0.00     0.042 A 
ATOM      5  C   UNL d   1      44.684 -15.681  44.509  0.00  0.00     0.120 A 
ATOM      6  C   UNL d   1      44.631 -14.273  44.789  0.00  0.00     0.101 A 
ENDROOT
BRANCH   1   7
ATOM      7  N   UNL d   1      45.565 -16.150  43.463  0.00  0.00    -0.205 NA
ATOM      8  C   UNL d   1      45.575 -16.935  43.783  0.00  0.00     0.279 C 
ATOM      9  O   UNL d   1      45.257 -17.063  44.558  0.00  0.00    -0.265 OA
BRANCH   8  10
ATOM     10  C   UNL d   1      45.890 -17.561  43.342  0.00  0.00     0.059 A 
ATOM     11  C   UNL d   1      45.761 -17.595  42.526  0.00  0.00     0.028 A 
ATOM     12  C   UNL d   1      46.071 -18.209  42.101  0.00  0.00     0.127 A 
ATOM     13  C   UNL d   1      46.506 -18.788  42.462  0.00  0.00     0.024 A 
ATOM     14  C   UNL d   1      46.644 -18.770  43.273  0.00  0.00     0.002 A 
ATOM     15  C   UNL d   1      46.330 -18.143  43.722  0.00  0.00     0.005 A 
BRANCH  12  16
ATOM     16  N   UNL d   1      45.957 -18.262  41.302  0.00  0.00    -0.114 N 
ATOM     17  O   UNL d   1      46.553 -18.250  40.726  0.00  0.00    -0.532 OA
ATOM     18  O   UNL d   1      45.223 -18.335  40.953  0.00  0.00    -0.532 OA
ENDBRANCH  12  16
ENDBRANCH   8  10
ENDBRANCH   1   7
BRANCH   2  19
ATOM     19  N   UNL d   1      46.060 -14.589  43.163  0.00  0.00    -0.206 NA
ATOM     20  C   UNL d   1      46.100 -13.843  42.809  0.00  0.00     0.279 C 
ATOM     21  O   UNL d   1      46.646 -13.685  42.232  0.00  0.00    -0.265 OA
BRANCH  20  22
ATOM     22  C   UNL d   1      45.559 -13.236  43.057  0.00  0.00     0.059 A 
ATOM     23  C   UNL d   1      44.891 -13.078  42.600  0.00  0.00     0.028 A 
ATOM     24  C   UNL d   1      44.370 -12.494  42.838  0.00  0.00     0.127 A 
ATOM     25  C   UNL d   1      44.507 -12.082  43.505  0.00  0.00     0.024 A 
ATOM     26  C   UNL d   1      45.182 -12.230  43.982  0.00  0.00     0.002 A 
ATOM     27  C   UNL d   1      45.715 -12.823  43.744  0.00  0.00     0.005 A 
BRANCH  24  28
ATOM     28  N   UNL d   1      43.704 -12.321  42.403  0.00  0.00    -0.114 N 
ATOM     29  O   UNL d   1      43.699 -12.157  41.584  0.00  0.00    -0.532 OA
ATOM     30  O   UNL d   1      42.952 -12.285  42.713  0.00  0.00    -0.532 OA
ENDBRANCH  24  28
ENDBRANCH  20  22
ENDBRANCH   2  19
TORSDOF 6
ENDMDL
