MODEL 1
REMARK VINA RESULT:      34.9      0.000      0.000
REMARK  4 active torsions:
REMARK  status: ('A' for Active; 'I' for Inactive)
REMARK    1  A    between atoms: N_2  and  S_1 
REMARK    2  A    between atoms: C_4  and  S_1 
REMARK    3  A    between atoms: C_3  and  N_2 
REMARK    4  A    between atoms: N_5  and  C_6 
REMARK       I    between atoms: C_9  and  N_5 
ROOT
ATOM      1  N   UNL d   1     -51.896  25.667  33.307  0.00  0.00    -0.157 NA
ENDROOT
BRANCH   1   2
ATOM      2  S   UNL d   1     -51.288  26.224  33.518  0.00  0.00     0.285 S 
ATOM      3  O   UNL d   1     -51.875  26.787  33.729  0.00  0.00    -0.198 OA
ATOM      4  O   UNL d   1     -50.700  25.661  33.308  0.00  0.00    -0.198 OA
BRANCH   2   5
ATOM      5  C   UNL d   1     -50.686  26.767  33.724  0.00  0.00     0.105 A 
ATOM      6  C   UNL d   1     -50.613  27.481  33.311  0.00  0.00     0.013 A 
ATOM      7  C   UNL d   1     -50.027  28.011  33.511  0.00  0.00     0.001 A 
ATOM      8  C   UNL d   1     -49.505  27.838  34.125  0.00  0.00     0.000 A 
ATOM      9  C   UNL d   1     -49.578  27.124  34.538  0.00  0.00     0.001 A 
ATOM     10  C   UNL d   1     -48.902  28.389  34.326  0.00  0.00     0.000 C 
ATOM     11  C   UNL d   1     -50.172  26.592  34.332  0.00  0.00     0.013 A 
ENDBRANCH   2   5
ENDBRANCH   1   2
BRANCH   1  12
ATOM     12  C   UNL d   1     -51.727  24.848  33.313  0.00  0.00     0.112 A 
ATOM     13  C   UNL d   1     -52.345  24.300  33.313  0.00  0.00     0.103 A 
ATOM     14  C   UNL d   1     -52.177  23.492  33.319  0.00  0.00     0.021 A 
ATOM     15  C   UNL d   1     -51.394  23.234  33.325  0.00  0.00     0.002 A 
ATOM     16  C   UNL d   1     -50.773  23.793  33.325  0.00  0.00     0.002 A 
ATOM     17  C   UNL d   1     -50.932  24.587  33.319  0.00  0.00     0.021 A 
BRANCH  13  18
ATOM     18  N   UNL d   1     -53.131  24.548  33.307  0.00  0.00    -0.206 NA
ATOM     19  C   UNL d   1     -53.726  24.006  33.490  0.00  0.00     0.280 C 
ATOM     20  O   UNL d   1     -53.530  23.235  33.674  0.00  0.00    -0.265 OA
ATOM     21  C   UNL d   1     -54.515  24.245  33.487  0.00  0.00     0.068 C 
ENDBRANCH  13  18
ENDBRANCH   1  12
TORSDOF 4
ENDMDL
