MODEL 1
REMARK VINA RESULT:      53.3      0.000      0.000
REMARK  6 active torsions:
REMARK  status: ('A' for Active; 'I' for Inactive)
REMARK    1  A    between atoms: N_5  and  C_1 
REMARK       I    between atoms: C_9  and  N_5 
REMARK    2  A    between atoms: C_20  and  C_6 
REMARK    3  A    between atoms: C_17  and  C_9 
REMARK    4  A    between atoms: C_12  and  C_10 
REMARK    5  A    between atoms: C_11  and  S_13 
REMARK    6  A    between atoms: S_13  and  C_17 
ROOT
ATOM      1  N   UNL d   1     -49.835  26.160  33.601  0.00  0.00    -0.148 NA
ATOM      2  N   UNL d   1     -49.406  26.861  33.677  0.00  0.00    -0.141 NA
ATOM      3  C   UNL d   1     -50.663  26.181  33.573  0.00  0.00     0.104 A 
ATOM      4  C   UNL d   1     -49.791  27.582  33.725  0.00  0.00     0.133 A 
ATOM      5  C   UNL d   1     -51.054  26.908  33.622  0.00  0.00     0.023 A 
ATOM      6  C   UNL d   1     -50.624  27.605  33.697  0.00  0.00     0.029 A 
ENDROOT
BRANCH   4   7
ATOM      7  S   UNL d   1     -49.362  28.283  33.800  0.00  0.00    -0.061 SA
BRANCH   7   8
ATOM      8  C   UNL d   1     -48.675  28.303  34.250  0.00  0.00     0.099 C 
BRANCH   8   9
ATOM      9  C   UNL d   1     -48.471  28.996  34.652  0.00  0.00     0.288 C 
ATOM     10  N   UNL d   1     -47.908  29.503  34.333  0.00  0.00    -0.181 NA
ATOM     11  O   UNL d   1     -48.829  29.178  35.369  0.00  0.00    -0.265 OA
BRANCH  10  12
ATOM     12  C   UNL d   1     -47.703  30.190  34.728  0.00  0.00     0.219 A 
ATOM     13  S   UNL d   1     -47.774  30.962  34.435  0.00  0.00    -0.026 SA
ATOM     14  C   UNL d   1     -47.507  31.475  35.009  0.00  0.00     0.135 A 
ATOM     15  N   UNL d   1     -47.269  31.029  35.660  0.00  0.00    -0.139 NA
ATOM     16  N   UNL d   1     -47.391  30.242  35.482  0.00  0.00    -0.121 NA
BRANCH  14  17
ATOM     17  C   UNL d   1     -47.480  32.299  34.950  0.00  0.00     0.028 C 
ATOM     18  C   UNL d   1     -47.219  32.658  34.262  0.00  0.00     0.002 C 
ENDBRANCH  14  17
ENDBRANCH  10  12
ENDBRANCH   8   9
ENDBRANCH   7   8
ENDBRANCH   4   7
BRANCH   3  19
ATOM     19  C   UNL d   1     -51.092  25.481  33.498  0.00  0.00     0.039 A 
ATOM     20  C   UNL d   1     -50.698  24.772  33.428  0.00  0.00     0.101 A 
ATOM     21  N   UNL d   1     -51.119  24.075  33.353  0.00  0.00    -0.242 NA
ATOM     22  C   UNL d   1     -51.951  24.093  33.348  0.00  0.00     0.099 A 
ATOM     23  C   UNL d   1     -52.343  24.807  33.418  0.00  0.00     0.021 A 
ATOM     24  C   UNL d   1     -51.922  25.514  33.494  0.00  0.00     0.005 A 
ENDBRANCH   3  19
TORSDOF 6
ENDMDL
MODEL 2
REMARK VINA RESULT:      55.1      1.410      6.221
REMARK  6 active torsions:
REMARK  status: ('A' for Active; 'I' for Inactive)
REMARK    1  A    between atoms: N_5  and  C_1 
REMARK       I    between atoms: C_9  and  N_5 
REMARK    2  A    between atoms: C_20  and  C_6 
REMARK    3  A    between atoms: C_17  and  C_9 
REMARK    4  A    between atoms: C_12  and  C_10 
REMARK    5  A    between atoms: C_11  and  S_13 
REMARK    6  A    between atoms: S_13  and  C_17 
ROOT
ATOM      1  N   UNL d   1     -48.105  28.897  35.802  0.00  0.00    -0.148 NA
ATOM      2  N   UNL d   1     -48.522  28.237  35.537  0.00  0.00    -0.141 NA
ATOM      3  C   UNL d   1     -47.943  29.522  35.281  0.00  0.00     0.104 A 
ATOM      4  C   UNL d   1     -48.780  28.189  34.761  0.00  0.00     0.133 A 
ATOM      5  C   UNL d   1     -48.201  29.477  34.497  0.00  0.00     0.023 A 
ATOM      6  C   UNL d   1     -48.617  28.816  34.236  0.00  0.00     0.029 A 
ENDROOT
BRANCH   4   7
ATOM      7  S   UNL d   1     -49.197  27.529  34.497  0.00  0.00    -0.061 SA
BRANCH   7   8
ATOM      8  C   UNL d   1     -49.601  27.551  33.782  0.00  0.00     0.099 C 
BRANCH   8   9
ATOM      9  C   UNL d   1     -50.274  27.081  33.679  0.00  0.00     0.288 C 
ATOM     10  N   UNL d   1     -50.195  26.266  33.604  0.00  0.00    -0.181 NA
ATOM     11  O   UNL d   1     -51.018  27.427  33.651  0.00  0.00    -0.265 OA
BRANCH  10  12
ATOM     12  C   UNL d   1     -50.858  25.798  33.502  0.00  0.00     0.219 A 
ATOM     13  S   UNL d   1     -50.874  24.969  33.487  0.00  0.00    -0.026 SA
ATOM     14  C   UNL d   1     -51.646  24.734  33.373  0.00  0.00     0.135 A 
ATOM     15  N   UNL d   1     -52.113  25.409  33.316  0.00  0.00    -0.139 NA
ATOM     16  N   UNL d   1     -51.626  26.059  33.396  0.00  0.00    -0.121 NA
BRANCH  14  17
ATOM     17  C   UNL d   1     -51.914  23.953  33.323  0.00  0.00     0.028 C 
ATOM     18  C   UNL d   1     -52.563  23.708  33.758  0.00  0.00     0.002 C 
ENDBRANCH  14  17
ENDBRANCH  10  12
ENDBRANCH   8   9
ENDBRANCH   7   8
ENDBRANCH   4   7
BRANCH   3  19
ATOM     19  C   UNL d   1     -47.526  30.183  35.546  0.00  0.00     0.039 A 
ATOM     20  C   UNL d   1     -47.223  30.192  36.302  0.00  0.00     0.101 A 
ATOM     21  N   UNL d   1     -46.809  30.846  36.568  0.00  0.00    -0.242 NA
ATOM     22  C   UNL d   1     -46.698  31.499  36.065  0.00  0.00     0.099 A 
ATOM     23  C   UNL d   1     -47.005  31.485  35.307  0.00  0.00     0.021 A 
ATOM     24  C   UNL d   1     -47.423  30.828  35.033  0.00  0.00     0.005 A 
ENDBRANCH   3  19
TORSDOF 6
ENDMDL
MODEL 3
REMARK VINA RESULT:      55.8      1.732      6.196
REMARK  6 active torsions:
REMARK  status: ('A' for Active; 'I' for Inactive)
REMARK    1  A    between atoms: N_5  and  C_1 
REMARK       I    between atoms: C_9  and  N_5 
REMARK    2  A    between atoms: C_20  and  C_6 
REMARK    3  A    between atoms: C_17  and  C_9 
REMARK    4  A    between atoms: C_12  and  C_10 
REMARK    5  A    between atoms: C_11  and  S_13 
REMARK    6  A    between atoms: S_13  and  C_17 
ROOT
ATOM      1  N   UNL d   1     -48.799  29.165  34.464  0.00  0.00    -0.148 NA
ATOM      2  N   UNL d   1     -49.314  28.669  34.052  0.00  0.00    -0.141 NA
ATOM      3  C   UNL d   1     -48.349  28.867  35.092  0.00  0.00     0.104 A 
ATOM      4  C   UNL d   1     -49.386  27.880  34.258  0.00  0.00     0.133 A 
ATOM      5  C   UNL d   1     -48.419  28.071  35.303  0.00  0.00     0.023 A 
ATOM      6  C   UNL d   1     -48.934  27.578  34.890  0.00  0.00     0.029 A 
ENDROOT
BRANCH   4   7
ATOM      7  S   UNL d   1     -49.901  27.384  33.847  0.00  0.00    -0.061 SA
BRANCH   7   8
ATOM      8  C   UNL d   1     -49.607  26.786  33.367  0.00  0.00     0.099 C 
BRANCH   8   9
ATOM      9  C   UNL d   1     -49.923  26.024  33.424  0.00  0.00     0.288 C 
ATOM     10  N   UNL d   1     -50.739  25.919  33.425  0.00  0.00    -0.181 NA
ATOM     11  O   UNL d   1     -49.425  25.373  33.481  0.00  0.00    -0.265 OA
BRANCH  10  12
ATOM     12  C   UNL d   1     -51.055  25.166  33.481  0.00  0.00     0.219 A 
ATOM     13  S   UNL d   1     -51.827  24.978  33.718  0.00  0.00    -0.026 SA
ATOM     14  C   UNL d   1     -51.905  24.166  33.695  0.00  0.00     0.135 A 
ATOM     15  N   UNL d   1     -51.189  23.847  33.445  0.00  0.00    -0.139 NA
ATOM     16  N   UNL d   1     -50.671  24.464  33.316  0.00  0.00    -0.121 NA
BRANCH  14  17
ATOM     17  C   UNL d   1     -52.586  23.738  33.888  0.00  0.00     0.028 C 
ATOM     18  C   UNL d   1     -53.006  23.341  33.307  0.00  0.00     0.002 C 
ENDBRANCH  14  17
ENDBRANCH  10  12
ENDBRANCH   8   9
ENDBRANCH   7   8
ENDBRANCH   4   7
BRANCH   3  19
ATOM     19  C   UNL d   1     -47.834  29.363  35.504  0.00  0.00     0.039 A 
ATOM     20  C   UNL d   1     -48.041  29.636  36.242  0.00  0.00     0.101 A 
ATOM     21  N   UNL d   1     -47.533  30.129  36.654  0.00  0.00    -0.242 NA
ATOM     22  C   UNL d   1     -46.806  30.349  36.315  0.00  0.00     0.099 A 
ATOM     23  C   UNL d   1     -46.602  30.073  35.573  0.00  0.00     0.021 A 
ATOM     24  C   UNL d   1     -47.111  29.575  35.154  0.00  0.00     0.005 A 
ENDBRANCH   3  19
TORSDOF 6
ENDMDL
