MODEL 1
REMARK VINA RESULT:      44.9      0.000      0.000
REMARK  5 active torsions:
REMARK  status: ('A' for Active; 'I' for Inactive)
REMARK    1  A    between atoms: C_10  and  C_3 
REMARK    2  A    between atoms: N_12  and  C_4 
REMARK    3  A    between atoms: N_11  and  C_15 
REMARK    4  A    between atoms: C_14  and  N_12 
REMARK    5  A    between atoms: C_15  and  C_14 
ROOT
ATOM      1  C   UNL d   1     -50.970  25.817  33.310  0.00  0.00     0.167 A 
ATOM      2  N   UNL d   1     -50.200  26.124  33.308  0.00  0.00    -0.195 N 
ATOM      3  C   UNL d   1     -50.911  25.003  33.310  0.00  0.00     0.057 A 
ATOM      4  C   UNL d   1     -50.085  26.936  33.308  0.00  0.00     0.167 A 
ATOM      5  N   UNL d   1     -49.684  25.491  33.306  0.00  0.00    -0.161 NA
ATOM      6  N   UNL d   1     -51.612  26.328  33.312  0.00  0.00    -0.227 NA
ATOM      7  C   UNL d   1     -50.737  27.447  33.310  0.00  0.00     0.058 A 
ATOM      8  C   UNL d   1     -50.109  24.806  33.307  0.00  0.00     0.124 A 
ATOM      9  C   UNL d   1     -51.490  27.147  33.312  0.00  0.00     0.086 A 
ATOM     10  C   UNL d   1     -52.133  27.673  33.314  0.00  0.00     0.021 C 
ENDROOT
BRANCH   4  11
ATOM     11  N   UNL d   1     -49.316  27.242  33.306  0.00  0.00    -0.224 NA
BRANCH  11  12
ATOM     12  C   UNL d   1     -49.129  27.880  33.787  0.00  0.00     0.120 C 
BRANCH  12  13
ATOM     13  C   UNL d   1     -48.477  27.836  34.294  0.00  0.00     0.101 C 
BRANCH  13  14
ATOM     14  N   UNL d   1     -48.276  28.479  34.771  0.00  0.00    -0.298 N 
ATOM     15  C   UNL d   1     -48.451  29.243  34.514  0.00  0.00     0.107 A 
ATOM     16  C   UNL d   1     -48.249  29.894  34.993  0.00  0.00     0.142 A 
ATOM     17  O   UNL d   1     -47.880  29.775  35.714  0.00  0.00    -0.300 OA
ATOM     18  C   UNL d   1     -47.706  29.002  35.970  0.00  0.00     0.142 A 
ATOM     19  C   UNL d   1     -47.905  28.359  35.497  0.00  0.00     0.107 A 
ENDBRANCH  13  14
ENDBRANCH  12  13
ENDBRANCH  11  12
ENDBRANCH   4  11
BRANCH   3  20
ATOM     20  C   UNL d   1     -51.592  24.534  33.311  0.00  0.00     0.004 A 
ATOM     21  C   UNL d   1     -52.339  24.897  33.313  0.00  0.00     0.000 A 
ATOM     22  C   UNL d   1     -53.015  24.440  33.315  0.00  0.00     0.000 A 
ATOM     23  C   UNL d   1     -52.959  23.610  33.315  0.00  0.00     0.000 A 
ATOM     24  C   UNL d   1     -52.223  23.251  33.313  0.00  0.00     0.000 A 
ATOM     25  C   UNL d   1     -51.541  23.716  33.312  0.00  0.00     0.000 A 
ENDBRANCH   3  20
TORSDOF 5
ENDMDL
MODEL 2
REMARK VINA RESULT:      47.4      0.583      1.419
REMARK  5 active torsions:
REMARK  status: ('A' for Active; 'I' for Inactive)
REMARK    1  A    between atoms: C_10  and  C_3 
REMARK    2  A    between atoms: N_12  and  C_4 
REMARK    3  A    between atoms: N_11  and  C_15 
REMARK    4  A    between atoms: C_14  and  N_12 
REMARK    5  A    between atoms: C_15  and  C_14 
ROOT
ATOM      1  C   UNL d   1     -50.854  25.599  33.323  0.00  0.00     0.167 A 
ATOM      2  N   UNL d   1     -50.581  26.382  33.319  0.00  0.00    -0.195 N 
ATOM      3  C   UNL d   1     -51.670  25.623  33.332  0.00  0.00     0.057 A 
ATOM      4  C   UNL d   1     -49.775  26.532  33.310  0.00  0.00     0.167 A 
ATOM      5  N   UNL d   1     -51.236  26.871  33.324  0.00  0.00    -0.161 NA
ATOM      6  N   UNL d   1     -50.315  24.981  33.319  0.00  0.00    -0.227 NA
ATOM      7  C   UNL d   1     -49.236  25.904  33.306  0.00  0.00     0.058 A 
ATOM      8  C   UNL d   1     -51.902  26.415  33.332  0.00  0.00     0.124 A 
ATOM      9  C   UNL d   1     -49.502  25.138  33.311  0.00  0.00     0.086 A 
ATOM     10  C   UNL d   1     -48.949  24.519  33.307  0.00  0.00     0.021 C 
ENDROOT
BRANCH   4  11
ATOM     11  N   UNL d   1     -49.503  27.314  33.306  0.00  0.00    -0.224 NA
BRANCH  11  12
ATOM     12  C   UNL d   1     -49.291  27.677  34.011  0.00  0.00     0.120 C 
BRANCH  12  13
ATOM     13  C   UNL d   1     -48.523  27.969  34.109  0.00  0.00     0.101 C 
BRANCH  13  14
ATOM     14  N   UNL d   1     -48.346  28.475  34.737  0.00  0.00    -0.298 N 
ATOM     15  C   UNL d   1     -48.135  29.257  34.578  0.00  0.00     0.107 A 
ATOM     16  C   UNL d   1     -47.955  29.770  35.208  0.00  0.00     0.142 A 
ATOM     17  O   UNL d   1     -47.989  29.499  35.981  0.00  0.00    -0.300 OA
ATOM     18  C   UNL d   1     -48.203  28.710  36.136  0.00  0.00     0.142 A 
ATOM     19  C   UNL d   1     -48.380  28.202  35.513  0.00  0.00     0.107 A 
ENDBRANCH  13  14
ENDBRANCH  12  13
ENDBRANCH  11  12
ENDBRANCH   4  11
BRANCH   3  20
ATOM     20  C   UNL d   1     -52.109  24.923  33.338  0.00  0.00     0.004 A 
ATOM     21  C   UNL d   1     -52.939  24.959  33.307  0.00  0.00     0.000 A 
ATOM     22  C   UNL d   1     -53.378  24.271  33.313  0.00  0.00     0.000 A 
ATOM     23  C   UNL d   1     -52.997  23.532  33.349  0.00  0.00     0.000 A 
ATOM     24  C   UNL d   1     -52.180  23.496  33.380  0.00  0.00     0.000 A 
ATOM     25  C   UNL d   1     -51.738  24.193  33.374  0.00  0.00     0.000 A 
ENDBRANCH   3  20
TORSDOF 5
ENDMDL
