MODEL 1
REMARK VINA RESULT:      33.9      0.000      0.000
REMARK  5 active torsions:
REMARK  status: ('A' for Active; 'I' for Inactive)
REMARK    1  A    between atoms: C_2  and  S_1 
REMARK    2  A    between atoms: N_5  and  S_1 
REMARK    3  A    between atoms: C_12  and  N_5 
REMARK    4  A    between atoms: O_16  and  C_8 
REMARK    5  A    between atoms: C_13  and  C_12 
ROOT
ATOM      1  S   UNL d   1     -55.877 -99.263 -44.610  0.00  0.00     0.286 S 
ATOM      2  O   UNL d   1     -55.919 -98.863 -45.330  0.00  0.00    -0.198 OA
ATOM      3  O   UNL d   1     -55.835 -99.663 -43.890  0.00  0.00    -0.198 OA
ENDROOT
BRANCH   1   4
ATOM      4  C   UNL d   1     -56.684 -99.140 -44.494  0.00  0.00     0.117 A 
ATOM      5  C   UNL d   1     -57.204 -99.187 -45.133  0.00  0.00     0.027 A 
ATOM      6  C   UNL d   1     -58.012 -99.063 -45.017  0.00  0.00     0.081 A 
ATOM      7 CL   UNL d   1     -58.533 -99.111 -45.659  0.00  0.00    -0.080 Cl
ATOM      8  C   UNL d   1     -58.298 -98.892 -44.262  0.00  0.00     0.105 A 
ATOM      9  C   UNL d   1     -57.778 -98.845 -43.624  0.00  0.00     0.037 A 
ATOM     10  C   UNL d   1     -56.971 -98.969 -43.740  0.00  0.00     0.072 A 
ATOM     11 CL   UNL d   1     -56.452 -98.923 -43.111  0.00  0.00    -0.082 Cl
BRANCH   8  12
ATOM     12  O   UNL d   1     -59.106 -98.769 -44.145  0.00  0.00    -0.327 OA
ATOM     13  C   UNL d   1     -59.533 -99.270 -43.649  0.00  0.00     0.181 C 
ENDBRANCH   8  12
ENDBRANCH   1   4
BRANCH   1  14
ATOM     14  N   UNL d   1     -55.070 -99.387 -44.726  0.00  0.00    -0.155 NA
BRANCH  14  15
ATOM     15  C   UNL d   1     -54.809-100.049 -45.145  0.00  0.00     0.131 C 
BRANCH  15  16
ATOM     16  C   UNL d   1     -54.785-100.787 -44.776  0.00  0.00     0.101 A 
ATOM     17  N   UNL d   1     -54.774-100.836 -43.953  0.00  0.00    -0.242 NA
ATOM     18  C   UNL d   1     -54.750-101.574 -43.584  0.00  0.00     0.099 A 
ATOM     19  C   UNL d   1     -54.737-102.263 -44.040  0.00  0.00     0.021 A 
ATOM     20  C   UNL d   1     -54.749-102.215 -44.867  0.00  0.00     0.003 A 
ATOM     21  C   UNL d   1     -54.773-101.477 -45.236  0.00  0.00     0.021 A 
ENDBRANCH  15  16
ENDBRANCH  14  15
ENDBRANCH   1  14
TORSDOF 5
ENDMDL
