MODEL 1
REMARK VINA RESULT:      34.3      0.000      0.000
REMARK  5 active torsions:
REMARK  status: ('A' for Active; 'I' for Inactive)
REMARK       I    between atoms: C_2  and  N_1 
REMARK    1  A    between atoms: C_3  and  N_1 
REMARK    2  A    between atoms: C_9  and  C_2 
REMARK    3  A    between atoms: N_6  and  C_3 
REMARK    4  A    between atoms: C_4  and  C_13 
REMARK    5  A    between atoms: C_13  and  N_6 
ROOT
ATOM      1  N   UNL d   1     -50.610  24.975  33.394  0.00  0.00    -0.299 N 
ATOM      2  C   UNL d   1     -50.941  24.223  33.359  0.00  0.00     0.259 C 
ATOM      3  O   UNL d   1     -50.452  23.555  33.341  0.00  0.00    -0.267 OA
ATOM      4  H   UNL d   1     -51.098  25.643  33.411  0.00  0.00     0.171 HD
ENDROOT
BRANCH   1   5
ATOM      5  C   UNL d   1     -49.806  25.072  33.412  0.00  0.00     0.179 C 
ATOM      6  S   UNL d   1     -49.322  24.414  33.539  0.00  0.00    -0.040 SA
BRANCH   5   7
ATOM      7  N   UNL d   1     -49.490  25.803  33.306  0.00  0.00    -0.329 N 
ATOM      8  H   UNL d   1     -49.511  26.148  32.573  0.00  0.00     0.168 HD
BRANCH   7   9
ATOM      9  C   UNL d   1     -49.155  26.185  33.930  0.00  0.00     0.099 C 
BRANCH   9  10
ATOM     10  C   UNL d   1     -49.390  26.959  34.111  0.00  0.00     0.117 A 
ATOM     11  O   UNL d   1     -49.112  27.304  34.799  0.00  0.00    -0.304 OA
ATOM     12  C   UNL d   1     -49.428  28.057  34.835  0.00  0.00     0.123 A 
ATOM     13  C   UNL d   1     -49.897  28.164  34.169  0.00  0.00     0.029 A 
ATOM     14  C   UNL d   1     -49.863  27.476  33.732  0.00  0.00     0.028 A 
ENDBRANCH   9  10
ENDBRANCH   7   9
ENDBRANCH   5   7
ENDBRANCH   1   5
BRANCH   2  15
ATOM     15  C   UNL d   1     -51.764  24.133  33.341  0.00  0.00     0.056 A 
ATOM     16  C   UNL d   1     -52.096  23.375  33.328  0.00  0.00     0.005 A 
ATOM     17  C   UNL d   1     -52.924  23.287  33.310  0.00  0.00     0.000 A 
ATOM     18  C   UNL d   1     -53.410  23.951  33.306  0.00  0.00     0.000 A 
ATOM     19  C   UNL d   1     -53.078  24.709  33.319  0.00  0.00     0.000 A 
ATOM     20  C   UNL d   1     -52.260  24.801  33.337  0.00  0.00     0.005 A 
ENDBRANCH   2  15
TORSDOF 5
ENDMDL
