MODEL 1
REMARK VINA RESULT:      81.6      0.000      0.000
REMARK  3 active torsions:
REMARK  status: ('A' for Active; 'I' for Inactive)
REMARK    1  A    between atoms: C_6  and  C_1 
REMARK    2  A    between atoms: N_7  and  C_2 
REMARK       I    between atoms: C_8  and  N_9 
REMARK    3  A    between atoms: C_11  and  C_8 
ROOT
ATOM      1  C   UNL d   1     -49.875  26.848  33.932  0.00  0.00     0.186 A 
ATOM      2  C   UNL d   1     -49.194  27.933  34.270  0.00  0.00     0.197 A 
ATOM      3  C   UNL d   1     -49.466  27.577  34.955  0.00  0.00     0.191 A 
ATOM      4  O   UNL d   1     -49.457  27.465  33.625  0.00  0.00    -0.270 OA
ATOM      5  N   UNL d   1     -49.902  26.883  34.740  0.00  0.00    -0.208 NA
ATOM      6  C   UNL d   1     -49.335  27.856  35.752  0.00  0.00     0.124 C 
ATOM      7  N   UNL d   1     -49.211  28.123  36.545  0.00  0.00    -0.190 NA
ENDROOT
BRANCH   2   8
ATOM      8  N   UNL d   1     -48.760  28.624  34.490  0.00  0.00    -0.280 N 
ATOM      9  C   UNL d   1     -48.205  28.595  35.109  0.00  0.00     0.101 A 
ATOM     10  C   UNL d   1     -47.783  29.251  35.328  0.00  0.00     0.102 A 
ATOM     11  N   UNL d   1     -47.897  29.996  34.927  0.00  0.00    -0.267 N 
ATOM     12  C   UNL d   1     -47.432  30.671  35.186  0.00  0.00     0.288 C 
ATOM     13  C   UNL d   1     -48.478  30.031  34.277  0.00  0.00     0.102 A 
ATOM     14  O   UNL d   1     -46.880  30.607  35.816  0.00  0.00    -0.264 OA
ATOM     15  C   UNL d   1     -48.895  29.324  34.082  0.00  0.00     0.101 A 
BRANCH  12  16
ATOM     16  C   UNL d   1     -47.545  31.416  34.785  0.00  0.00     0.156 A 
ATOM     17  O   UNL d   1     -47.546  31.647  34.002  0.00  0.00    -0.300 OA
ATOM     18  C   UNL d   1     -47.692  32.470  33.967  0.00  0.00     0.123 A 
ATOM     19  C   UNL d   1     -47.780  32.737  34.734  0.00  0.00     0.029 A 
ATOM     20  C   UNL d   1     -47.691  32.098  35.244  0.00  0.00     0.032 A 
ENDBRANCH  12  16
ENDBRANCH   2   8
BRANCH   1  21
ATOM     21  C   UNL d   1     -50.312  26.153  33.721  0.00  0.00     0.052 A 
ATOM     22  C   UNL d   1     -51.123  26.224  33.532  0.00  0.00     0.061 A 
ATOM     23 CL   UNL d   1     -51.433  26.987  33.569  0.00  0.00    -0.082 Cl
ATOM     24  C   UNL d   1     -51.561  25.562  33.326  0.00  0.00     0.011 A 
ATOM     25  C   UNL d   1     -51.203  24.828  33.306  0.00  0.00     0.001 A 
ATOM     26  C   UNL d   1     -50.404  24.746  33.490  0.00  0.00     0.000 A 
ATOM     27  C   UNL d   1     -49.972  25.401  33.694  0.00  0.00     0.004 A 
ENDBRANCH   1  21
TORSDOF 3
ENDMDL
