MODEL 1
REMARK VINA RESULT:      59.7      0.000      0.000
REMARK  7 active torsions:
REMARK  status: ('A' for Active; 'I' for Inactive)
REMARK    1  A    between atoms: C_6  and  C_1 
REMARK    2  A    between atoms: C_9  and  N_3 
REMARK    3  A    between atoms: C_11  and  C_4 
REMARK       I    between atoms: N_7  and  C_6 
REMARK    4  A    between atoms: C_15  and  N_7 
REMARK    5  A    between atoms: C_8  and  C_10 
REMARK    6  A    between atoms: O_18  and  C_8 
REMARK    7  A    between atoms: C_27  and  O_18 
ROOT
ATOM      1  C   UNL d   1      13.667  13.252  -3.583  0.00  0.00     0.096 A 
ATOM      2  N   UNL d   1      13.564  11.832  -3.514  0.00  0.00    -0.165 NA
ATOM      3  N   UNL d   1      13.912  12.574  -2.352  0.00  0.00    -0.228 N 
ATOM      4  C   UNL d   1      13.516  12.526  -3.951  0.00  0.00     0.108 A 
ATOM      5  C   UNL d   1      13.864  13.268  -2.783  0.00  0.00     0.107 A 
ENDROOT
BRANCH   1   6
ATOM      6  C   UNL d   1      13.620  13.947  -4.015  0.00  0.00     0.282 C 
ATOM      7  N   UNL d   1      14.069  14.634  -3.777  0.00  0.00    -0.208 NA
ATOM      8  O   UNL d   1      13.140  13.984  -4.680  0.00  0.00    -0.265 OA
BRANCH   7   9
ATOM      9  C   UNL d   1      14.018  15.349  -4.225  0.00  0.00     0.085 A 
ATOM     10  C   UNL d   1      13.324  15.532  -4.666  0.00  0.00     0.019 A 
ATOM     11  C   UNL d   1      13.275  16.247  -5.113  0.00  0.00     0.007 A 
ATOM     12  C   UNL d   1      13.930  16.787  -5.119  0.00  0.00     0.064 A 
ATOM     13  C   UNL d   1      14.622  16.601  -4.676  0.00  0.00     0.007 A 
ATOM     14  C   UNL d   1      14.666  15.884  -4.231  0.00  0.00     0.019 A 
BRANCH  12  15
ATOM     15  C   UNL d   1      13.886  17.509  -5.567  0.00  0.00     0.300 C 
ATOM     16  O   UNL d   1      13.194  17.683  -6.026  0.00  0.00    -0.259 OA
BRANCH  15  17
ATOM     17  O   UNL d   1      14.534  18.057  -5.557  0.00  0.00    -0.271 OA
BRANCH  17  18
ATOM     18  C   UNL d   1      14.386  18.888  -5.555  0.00  0.00     0.126 C 
ATOM     19  C   UNL d   1      14.981  19.417  -5.298  0.00  0.00     0.029 C 
ENDBRANCH  17  18
ENDBRANCH  15  17
ENDBRANCH  12  15
ENDBRANCH   7   9
ENDBRANCH   1   6
BRANCH   4  20
ATOM     20  C   UNL d   1      13.321  12.501  -4.736  0.00  0.00     0.023 A 
ATOM     21  C   UNL d   1      13.439  11.814  -5.171  0.00  0.00     0.022 A 
ATOM     22  C   UNL d   1      13.244  11.783  -5.966  0.00  0.00     0.099 A 
ATOM     23  N   UNL d   1      12.924  12.451  -6.333  0.00  0.00    -0.242 NA
ATOM     24  C   UNL d   1      12.804  13.140  -5.904  0.00  0.00     0.099 A 
ATOM     25  C   UNL d   1      13.002  13.165  -5.106  0.00  0.00     0.022 A 
ENDBRANCH   4  20
BRANCH   3  26
ATOM     26  C   UNL d   1      14.087  12.385  -1.573  0.00  0.00     0.083 A 
ATOM     27  C   UNL d   1      14.860  12.442  -1.308  0.00  0.00     0.019 A 
ATOM     28  C   UNL d   1      15.032  12.253  -0.529  0.00  0.00     0.002 A 
ATOM     29  C   UNL d   1      14.435  12.007  -0.016  0.00  0.00     0.000 A 
ATOM     30  C   UNL d   1      13.658  11.951  -0.288  0.00  0.00     0.002 A 
ATOM     31  C   UNL d   1      13.485  12.140  -1.066  0.00  0.00     0.019 A 
ENDBRANCH   3  26
TORSDOF 7
ENDMDL
