MODEL 1
REMARK VINA RESULT:      10.7      0.000      0.000
REMARK  2 active torsions:
REMARK  status: ('A' for Active; 'I' for Inactive)
REMARK    1  A    between atoms: C_7  and  C_1 
REMARK    2  A    between atoms: C_8  and  C_7 
ROOT
ATOM      1  C   UNL d   1     -52.661  24.460  33.315  0.00  0.00     0.033 A 
ATOM      2  C   UNL d   1     -51.717  25.396  33.308  0.00  0.00     0.100 A 
ATOM      3  C   UNL d   1     -51.845  24.583  33.314  0.00  0.00     0.025 A 
ATOM      4  O   UNL d   1     -52.450  25.774  33.307  0.00  0.00    -0.305 OA
ATOM      5  C   UNL d   1     -53.032  25.191  33.311  0.00  0.00     0.123 A 
ATOM      6  C   UNL d   1     -51.208  24.070  33.316  0.00  0.00     0.002 A 
ATOM      7  C   UNL d   1     -50.945  25.703  33.306  0.00  0.00     0.025 A 
ATOM      8  C   UNL d   1     -50.435  24.364  33.313  0.00  0.00     0.000 A 
ATOM      9  C   UNL d   1     -50.304  25.183  33.308  0.00  0.00     0.002 A 
ATOM     10  C   UNL d   1     -51.338  23.248  33.321  0.00  0.00     0.000 C 
ATOM     11  C   UNL d   1     -49.532  25.477  33.306  0.00  0.00     0.000 C 
ENDROOT
BRANCH   1  12
ATOM     12  C   UNL d   1     -53.033  23.725  33.320  0.00  0.00     0.072 C 
BRANCH  12  13
ATOM     13  C   UNL d   1     -53.782  23.642  33.663  0.00  0.00     0.211 C 
ATOM     14  O   UNL d   1     -53.871  23.207  34.366  0.00  0.00    -0.644 OA
ATOM     15  O   UNL d   1     -54.439  23.991  33.307  0.00  0.00    -0.644 OA
ENDBRANCH  12  13
ENDBRANCH   1  12
TORSDOF 2
ENDMDL
