MODEL 1
REMARK VINA RESULT:      27.9      0.000      0.000
REMARK  5 active torsions:
REMARK  status: ('A' for Active; 'I' for Inactive)
REMARK    1  A    between atoms: C_10  and  C_4 
REMARK    2  A    between atoms: N_12  and  C_5 
REMARK    3  A    between atoms: N_11  and  C_22 
REMARK    4  A    between atoms: C_21  and  N_12 
REMARK    5  A    between atoms: C_22  and  C_21 
ROOT
ATOM      1  N   UNL d   1      46.092 -17.793  43.736  0.00  0.00    -0.195 N 
ATOM      2  C   UNL d   1      46.098 -18.510  43.330  0.00  0.00     0.167 A 
ATOM      3  N   UNL d   1      46.282 -17.201  43.204  0.00  0.00    -0.163 NA
ATOM      4  C   UNL d   1      46.292 -18.355  42.550  0.00  0.00     0.055 A 
ATOM      5  C   UNL d   1      45.912 -17.776  44.540  0.00  0.00     0.167 A 
ATOM      6  C   UNL d   1      46.405 -17.557  42.472  0.00  0.00     0.104 A 
ATOM      7  N   UNL d   1      45.925 -19.211  43.726  0.00  0.00    -0.227 NA
ATOM      8  C   UNL d   1      45.738 -18.484  44.942  0.00  0.00     0.058 A 
ATOM      9  C   UNL d   1      45.744 -19.194  44.539  0.00  0.00     0.086 A 
ATOM     10  C   UNL d   1      46.609 -17.171  41.767  0.00  0.00     0.023 C 
ATOM     11  C   UNL d   1      45.567 -19.900  44.953  0.00  0.00     0.021 C 
ENDROOT
BRANCH   5  12
ATOM     12  N   UNL d   1      45.906 -17.059  44.947  0.00  0.00    -0.224 NA
BRANCH  12  13
ATOM     13  C   UNL d   1      45.814 -16.352  44.536  0.00  0.00     0.120 C 
BRANCH  13  14
ATOM     14  C   UNL d   1      45.467 -15.693  44.909  0.00  0.00     0.101 C 
BRANCH  14  15
ATOM     15  N   UNL d   1      45.504 -14.955  44.552  0.00  0.00    -0.298 N 
ATOM     16  C   UNL d   1      44.871 -14.691  44.085  0.00  0.00     0.107 A 
ATOM     17  C   UNL d   1      44.908 -13.953  43.727  0.00  0.00     0.142 A 
ATOM     18  O   UNL d   1      45.573 -13.463  43.827  0.00  0.00    -0.300 OA
ATOM     19  C   UNL d   1      46.209 -13.728  44.296  0.00  0.00     0.142 A 
ATOM     20  C   UNL d   1      46.174 -14.472  44.657  0.00  0.00     0.107 A 
ENDBRANCH  14  15
ENDBRANCH  13  14
ENDBRANCH  12  13
ENDBRANCH   5  12
BRANCH   4  21
ATOM     21  C   UNL d   1      46.381 -18.852  41.892  0.00  0.00     0.004 A 
ATOM     22  C   UNL d   1      46.310 -18.537  41.128  0.00  0.00     0.001 A 
ATOM     23  C   UNL d   1      46.398 -19.033  40.475  0.00  0.00     0.011 A 
ATOM     24  C   UNL d   1      46.557 -19.835  40.585  0.00  0.00     0.058 A 
ATOM     25  C   UNL d   1      46.629 -20.151  41.340  0.00  0.00     0.011 A 
ATOM     26 CL   UNL d   1      46.645 -20.328  39.922  0.00  0.00    -0.082 Cl
ATOM     27  C   UNL d   1      46.540 -19.655  41.998  0.00  0.00     0.001 A 
ENDBRANCH   4  21
TORSDOF 5
ENDMDL
