MODEL 1
REMARK VINA RESULT:      -9.5      0.000      0.000
REMARK  5 active torsions:
REMARK  status: ('A' for Active; 'I' for Inactive)
REMARK    1  A    between atoms: C_6  and  C_1 
REMARK    2  A    between atoms: C_7  and  C_2 
REMARK    3  A    between atoms: O_12  and  C_6 
REMARK    4  A    between atoms: O_14  and  C_11 
REMARK    5  A    between atoms: C_17  and  O_12 
ROOT
ATOM      1  C   UNL d   1      53.095  32.119  53.745  0.00  0.00     0.088 A 
ATOM      2  C   UNL d   1      52.658  32.463  53.135  0.00  0.00     0.105 A 
ATOM      3  C   UNL d   1      53.144  31.309  53.617  0.00  0.00     0.032 A 
ATOM      4  O   UNL d   1      52.434  31.848  52.622  0.00  0.00    -0.307 OA
ATOM      5  C   UNL d   1      52.735  31.141  52.923  0.00  0.00     0.100 A 
ATOM      6  C   UNL d   1      53.503  30.709  54.038  0.00  0.00     0.026 A 
ATOM      7  C   UNL d   1      52.689  30.359  52.652  0.00  0.00     0.027 A 
ATOM      8  C   UNL d   1      53.457  29.927  53.767  0.00  0.00     0.094 A 
ATOM      9  C   UNL d   1      53.048  29.759  53.073  0.00  0.00     0.026 A 
ENDROOT
BRANCH   2  10
ATOM     10  C   UNL d   1      52.471  33.258  53.037  0.00  0.00     0.023 A 
ATOM     11  C   UNL d   1      52.989  33.768  52.619  0.00  0.00     0.002 A 
ATOM     12  C   UNL d   1      52.786  34.573  52.526  0.00  0.00     0.000 A 
ATOM     13  C   UNL d   1      52.067  34.862  52.852  0.00  0.00     0.000 A 
ATOM     14  C   UNL d   1      51.572  34.352  53.257  0.00  0.00     0.000 A 
ATOM     15  C   UNL d   1      51.772  33.560  53.348  0.00  0.00     0.002 A 
ENDBRANCH   2  10
BRANCH   1  16
ATOM     16  C   UNL d   1      53.258  32.808  54.178  0.00  0.00     0.302 C 
ATOM     17  O   UNL d   1      52.648  33.226  54.532  0.00  0.00    -0.259 OA
BRANCH  16  18
ATOM     18  O   UNL d   1      54.036  33.083  54.259  0.00  0.00    -0.271 OA
BRANCH  18  19
ATOM     19  C   UNL d   1      54.371  33.205  55.012  0.00  0.00     0.126 C 
ATOM     20  C   UNL d   1      55.091  33.617  55.085  0.00  0.00     0.029 C 
ENDBRANCH  18  19
ENDBRANCH  16  18
ENDBRANCH   1  16
BRANCH   8  21
ATOM     21  O   UNL d   1      53.825  29.321  54.201  0.00  0.00    -0.328 OA
ATOM     22  C   UNL d   1      53.369  28.837  54.718  0.00  0.00     0.181 C 
ENDBRANCH   8  21
TORSDOF 5
ENDMDL
MODEL 2
REMARK VINA RESULT:      -8.6      1.219      3.837
REMARK  5 active torsions:
REMARK  status: ('A' for Active; 'I' for Inactive)
REMARK    1  A    between atoms: C_6  and  C_1 
REMARK    2  A    between atoms: C_7  and  C_2 
REMARK    3  A    between atoms: O_12  and  C_6 
REMARK    4  A    between atoms: O_14  and  C_11 
REMARK    5  A    between atoms: C_17  and  O_12 
ROOT
ATOM      1  C   UNL d   1      53.229  32.607  53.719  0.00  0.00     0.088 A 
ATOM      2  C   UNL d   1      53.553  31.873  53.911  0.00  0.00     0.105 A 
ATOM      3  C   UNL d   1      53.607  33.190  54.157  0.00  0.00     0.032 A 
ATOM      4  O   UNL d   1      54.144  32.011  54.480  0.00  0.00    -0.307 OA
ATOM      5  C   UNL d   1      54.172  32.822  54.628  0.00  0.00     0.100 A 
ATOM      6  C   UNL d   1      53.510  34.000  54.189  0.00  0.00     0.026 A 
ATOM      7  C   UNL d   1      54.644  33.277  55.135  0.00  0.00     0.027 A 
ATOM      8  C   UNL d   1      53.982  34.455  54.696  0.00  0.00     0.094 A 
ATOM      9  C   UNL d   1      54.548  34.087  55.166  0.00  0.00     0.026 A 
ENDROOT
BRANCH   2  10
ATOM     10  C   UNL d   1      53.346  31.137  53.608  0.00  0.00     0.023 A 
ATOM     11  C   UNL d   1      53.650  30.881  52.870  0.00  0.00     0.002 A 
ATOM     12  C   UNL d   1      53.431  30.130  52.574  0.00  0.00     0.000 A 
ATOM     13  C   UNL d   1      52.911  29.643  53.019  0.00  0.00     0.000 A 
ATOM     14  C   UNL d   1      52.624  29.906  53.737  0.00  0.00     0.000 A 
ATOM     15  C   UNL d   1      52.838  30.644  54.028  0.00  0.00     0.002 A 
ENDBRANCH   2  10
BRANCH   1  16
ATOM     16  C   UNL d   1      52.671  32.349  53.162  0.00  0.00     0.302 C 
ATOM     17  O   UNL d   1      52.918  32.040  52.443  0.00  0.00    -0.259 OA
BRANCH  16  18
ATOM     18  O   UNL d   1      51.859  32.398  53.322  0.00  0.00    -0.271 OA
BRANCH  18  19
ATOM     19  C   UNL d   1      51.357  32.865  52.848  0.00  0.00     0.126 C 
ATOM     20  C   UNL d   1      50.593  33.058  53.119  0.00  0.00     0.029 C 
ENDBRANCH  18  19
ENDBRANCH  16  18
ENDBRANCH   1  16
BRANCH   8  21
ATOM     21  O   UNL d   1      53.878  35.279  54.722  0.00  0.00    -0.328 OA
ATOM     22  C   UNL d   1      53.103  35.607  54.689  0.00  0.00     0.181 C 
ENDBRANCH   8  21
TORSDOF 5
ENDMDL
MODEL 3
REMARK VINA RESULT:      -8.5      1.190      3.764
REMARK  5 active torsions:
REMARK  status: ('A' for Active; 'I' for Inactive)
REMARK    1  A    between atoms: C_6  and  C_1 
REMARK    2  A    between atoms: C_7  and  C_2 
REMARK    3  A    between atoms: O_12  and  C_6 
REMARK    4  A    between atoms: O_14  and  C_11 
REMARK    5  A    between atoms: C_17  and  O_12 
ROOT
ATOM      1  C   UNL d   1      52.609  33.352  53.315  0.00  0.00     0.088 A 
ATOM      2  C   UNL d   1      52.935  33.773  53.946  0.00  0.00     0.105 A 
ATOM      3  C   UNL d   1      51.915  33.721  53.075  0.00  0.00     0.032 A 
ATOM      4  O   UNL d   1      52.427  34.415  54.095  0.00  0.00    -0.307 OA
ATOM      5  C   UNL d   1      51.802  34.378  53.558  0.00  0.00     0.100 A 
ATOM      6  C   UNL d   1      51.377  33.545  52.487  0.00  0.00     0.026 A 
ATOM      7  C   UNL d   1      51.139  34.862  53.444  0.00  0.00     0.027 A 
ATOM      8  C   UNL d   1      50.714  34.029  52.374  0.00  0.00     0.094 A 
ATOM      9  C   UNL d   1      50.601  34.686  52.856  0.00  0.00     0.026 A 
ENDROOT
BRANCH   2  10
ATOM     10  C   UNL d   1      53.626  33.607  54.359  0.00  0.00     0.023 A 
ATOM     11  C   UNL d   1      54.365  33.886  54.079  0.00  0.00     0.002 A 
ATOM     12  C   UNL d   1      55.060  33.709  54.509  0.00  0.00     0.000 A 
ATOM     13  C   UNL d   1      55.010  33.255  55.214  0.00  0.00     0.000 A 
ATOM     14  C   UNL d   1      54.281  32.989  55.474  0.00  0.00     0.000 A 
ATOM     15  C   UNL d   1      53.598  33.163  55.051  0.00  0.00     0.002 A 
ENDBRANCH   2  10
BRANCH   1  16
ATOM     16  C   UNL d   1      53.185  32.757  53.260  0.00  0.00     0.302 C 
ATOM     17  O   UNL d   1      53.940  32.936  52.995  0.00  0.00    -0.259 OA
BRANCH  16  18
ATOM     18  O   UNL d   1      53.006  31.975  53.471  0.00  0.00    -0.271 OA
BRANCH  18  19
ATOM     19  C   UNL d   1      53.092  31.353  52.923  0.00  0.00     0.126 C 
ATOM     20  C   UNL d   1      52.939  30.569  53.157  0.00  0.00     0.029 C 
ENDBRANCH  18  19
ENDBRANCH  16  18
ENDBRANCH   1  16
BRANCH   8  21
ATOM     21  O   UNL d   1      50.170  33.844  51.773  0.00  0.00    -0.328 OA
ATOM     22  C   UNL d   1      49.562  34.391  51.573  0.00  0.00     0.181 C 
ENDBRANCH   8  21
TORSDOF 5
ENDMDL
MODEL 4
REMARK VINA RESULT:      -8.1      1.281      2.235
REMARK  5 active torsions:
REMARK  status: ('A' for Active; 'I' for Inactive)
REMARK    1  A    between atoms: C_6  and  C_1 
REMARK    2  A    between atoms: C_7  and  C_2 
REMARK    3  A    between atoms: O_12  and  C_6 
REMARK    4  A    between atoms: O_14  and  C_11 
REMARK    5  A    between atoms: C_17  and  O_12 
ROOT
ATOM      1  C   UNL d   1      52.640  32.947  53.511  0.00  0.00     0.088 A 
ATOM      2  C   UNL d   1      53.240  33.406  53.844  0.00  0.00     0.105 A 
ATOM      3  C   UNL d   1      52.917  32.182  53.399  0.00  0.00     0.032 A 
ATOM      4  O   UNL d   1      53.901  32.908  53.938  0.00  0.00    -0.307 OA
ATOM      5  C   UNL d   1      53.697  32.158  53.663  0.00  0.00     0.100 A 
ATOM      6  C   UNL d   1      52.565  31.511  53.095  0.00  0.00     0.026 A 
ATOM      7  C   UNL d   1      54.124  31.448  53.618  0.00  0.00     0.027 A 
ATOM      8  C   UNL d   1      52.993  30.802  53.050  0.00  0.00     0.094 A 
ATOM      9  C   UNL d   1      53.772  30.778  53.313  0.00  0.00     0.026 A 
ENDROOT
BRANCH   2  10
ATOM     10  C   UNL d   1      53.210  34.201  54.050  0.00  0.00     0.023 A 
ATOM     11  C   UNL d   1      53.410  34.792  53.491  0.00  0.00     0.002 A 
ATOM     12  C   UNL d   1      53.375  35.597  53.713  0.00  0.00     0.000 A 
ATOM     13  C   UNL d   1      53.140  35.804  54.493  0.00  0.00     0.000 A 
ATOM     14  C   UNL d   1      52.948  35.215  55.028  0.00  0.00     0.000 A 
ATOM     15  C   UNL d   1      52.983  34.424  54.809  0.00  0.00     0.002 A 
ENDBRANCH   2  10
BRANCH   1  16
ATOM     16  C   UNL d   1      52.053  33.533  53.467  0.00  0.00     0.302 C 
ATOM     17  O   UNL d   1      51.711  33.826  54.153  0.00  0.00    -0.259 OA
BRANCH  16  18
ATOM     18  O   UNL d   1      51.805  33.828  52.734  0.00  0.00    -0.271 OA
BRANCH  18  19
ATOM     19  C   UNL d   1      50.996  33.852  52.533  0.00  0.00     0.126 C 
ATOM     20  C   UNL d   1      50.759  34.171  51.802  0.00  0.00     0.029 C 
ENDBRANCH  18  19
ENDBRANCH  16  18
ENDBRANCH   1  16
BRANCH   8  21
ATOM     21  O   UNL d   1      52.628  30.124  52.739  0.00  0.00    -0.328 OA
ATOM     22  C   UNL d   1      52.596  29.416  53.195  0.00  0.00     0.181 C 
ENDBRANCH   8  21
TORSDOF 5
ENDMDL
MODEL 5
REMARK VINA RESULT:      -8.0      1.525      3.319
REMARK  5 active torsions:
REMARK  status: ('A' for Active; 'I' for Inactive)
REMARK    1  A    between atoms: C_6  and  C_1 
REMARK    2  A    between atoms: C_7  and  C_2 
REMARK    3  A    between atoms: O_12  and  C_6 
REMARK    4  A    between atoms: O_14  and  C_11 
REMARK    5  A    between atoms: C_17  and  O_12 
ROOT
ATOM      1  C   UNL d   1      52.253  33.693  53.642  0.00  0.00     0.088 A 
ATOM      2  C   UNL d   1      51.865  34.320  53.271  0.00  0.00     0.105 A 
ATOM      3  C   UNL d   1      52.850  33.993  54.121  0.00  0.00     0.032 A 
ATOM      4  O   UNL d   1      52.234  35.019  53.529  0.00  0.00    -0.307 OA
ATOM      5  C   UNL d   1      52.838  34.813  54.051  0.00  0.00     0.100 A 
ATOM      6  C   UNL d   1      53.396  33.630  54.606  0.00  0.00     0.026 A 
ATOM      7  C   UNL d   1      53.384  35.269  54.476  0.00  0.00     0.027 A 
ATOM      8  C   UNL d   1      53.942  34.086  55.031  0.00  0.00     0.094 A 
ATOM      9  C   UNL d   1      53.930  34.906  54.961  0.00  0.00     0.026 A 
ENDROOT
BRANCH   2  10
ATOM     10  C   UNL d   1      51.234  34.280  52.745  0.00  0.00     0.023 A 
ATOM     11  C   UNL d   1      51.373  34.208  51.921  0.00  0.00     0.002 A 
ATOM     12  C   UNL d   1      50.723  34.168  51.397  0.00  0.00     0.000 A 
ATOM     13  C   UNL d   1      49.940  34.201  51.701  0.00  0.00     0.000 A 
ATOM     14  C   UNL d   1      49.821  34.271  52.507  0.00  0.00     0.000 A 
ATOM     15  C   UNL d   1      50.460  34.310  53.023  0.00  0.00     0.002 A 
ENDBRANCH   2  10
BRANCH   1  16
ATOM     16  C   UNL d   1      51.812  33.070  53.317  0.00  0.00     0.302 C 
ATOM     17  O   UNL d   1      51.011  33.002  53.482  0.00  0.00    -0.259 OA
BRANCH  16  18
ATOM     18  O   UNL d   1      52.171  32.510  52.823  0.00  0.00    -0.271 OA
BRANCH  18  19
ATOM     19  C   UNL d   1      52.159  31.699  53.016  0.00  0.00     0.126 C 
ATOM     20  C   UNL d   1      52.666  31.170  52.620  0.00  0.00     0.029 C 
ENDBRANCH  18  19
ENDBRANCH  16  18
ENDBRANCH   1  16
BRANCH   8  21
ATOM     21  O   UNL d   1      54.496  33.710  55.523  0.00  0.00    -0.328 OA
ATOM     22  C   UNL d   1      55.313  33.716  55.320  0.00  0.00     0.181 C 
ENDBRANCH   8  21
TORSDOF 5
ENDMDL
MODEL 6
REMARK VINA RESULT:      -7.5      0.979      3.544
REMARK  5 active torsions:
REMARK  status: ('A' for Active; 'I' for Inactive)
REMARK    1  A    between atoms: C_6  and  C_1 
REMARK    2  A    between atoms: C_7  and  C_2 
REMARK    3  A    between atoms: O_12  and  C_6 
REMARK    4  A    between atoms: O_14  and  C_11 
REMARK    5  A    between atoms: C_17  and  O_12 
ROOT
ATOM      1  C   UNL d   1      53.013  32.684  53.542  0.00  0.00     0.088 A 
ATOM      2  C   UNL d   1      52.619  32.008  53.280  0.00  0.00     0.105 A 
ATOM      3  C   UNL d   1      52.544  33.342  53.397  0.00  0.00     0.032 A 
ATOM      4  O   UNL d   1      51.890  32.260  52.968  0.00  0.00    -0.307 OA
ATOM      5  C   UNL d   1      51.849  33.080  53.042  0.00  0.00     0.100 A 
ATOM      6  C   UNL d   1      52.657  34.137  53.541  0.00  0.00     0.026 A 
ATOM      7  C   UNL d   1      51.264  33.628  52.831  0.00  0.00     0.027 A 
ATOM      8  C   UNL d   1      52.072  34.685  53.330  0.00  0.00     0.094 A 
ATOM      9  C   UNL d   1      51.377  34.423  52.975  0.00  0.00     0.026 A 
ENDROOT
BRANCH   2  10
ATOM     10  C   UNL d   1      52.879  31.228  53.314  0.00  0.00     0.023 A 
ATOM     11  C   UNL d   1      53.329  30.904  52.685  0.00  0.00     0.002 A 
ATOM     12  C   UNL d   1      53.588  30.111  52.731  0.00  0.00     0.000 A 
ATOM     13  C   UNL d   1      53.394  29.649  53.406  0.00  0.00     0.000 A 
ATOM     14  C   UNL d   1      52.954  29.979  54.011  0.00  0.00     0.000 A 
ATOM     15  C   UNL d   1      52.700  30.759  53.965  0.00  0.00     0.002 A 
ENDBRANCH   2  10
BRANCH   1  16
ATOM     16  C   UNL d   1      53.703  32.317  53.823  0.00  0.00     0.302 C 
ATOM     17  O   UNL d   1      54.214  31.944  53.301  0.00  0.00    -0.259 OA
BRANCH  16  18
ATOM     18  O   UNL d   1      53.886  32.323  54.632  0.00  0.00    -0.271 OA
BRANCH  18  19
ATOM     19  C   UNL d   1      54.552  32.734  54.918  0.00  0.00     0.126 C 
ATOM     20  C   UNL d   1      54.581  32.975  55.714  0.00  0.00     0.029 C 
ENDBRANCH  18  19
ENDBRANCH  16  18
ENDBRANCH   1  16
BRANCH   8  21
ATOM     21  O   UNL d   1      52.194  35.493  53.479  0.00  0.00    -0.328 OA
ATOM     22  C   UNL d   1      52.559  35.738  54.197  0.00  0.00     0.181 C 
ENDBRANCH   8  21
TORSDOF 5
ENDMDL
MODEL 7
REMARK VINA RESULT:      -7.3      1.495      2.488
REMARK  5 active torsions:
REMARK  status: ('A' for Active; 'I' for Inactive)
REMARK    1  A    between atoms: C_6  and  C_1 
REMARK    2  A    between atoms: C_7  and  C_2 
REMARK    3  A    between atoms: O_12  and  C_6 
REMARK    4  A    between atoms: O_14  and  C_11 
REMARK    5  A    between atoms: C_17  and  O_12 
ROOT
ATOM      1  C   UNL d   1      52.695  33.829  53.327  0.00  0.00     0.088 A 
ATOM      2  C   UNL d   1      52.044  33.446  52.994  0.00  0.00     0.105 A 
ATOM      3  C   UNL d   1      53.254  33.269  53.547  0.00  0.00     0.032 A 
ATOM      4  O   UNL d   1      52.211  32.631  53.011  0.00  0.00    -0.307 OA
ATOM      5  C   UNL d   1      52.955  32.528  53.351  0.00  0.00     0.100 A 
ATOM      6  C   UNL d   1      53.989  33.336  53.895  0.00  0.00     0.026 A 
ATOM      7  C   UNL d   1      53.403  31.848  53.510  0.00  0.00     0.027 A 
ATOM      8  C   UNL d   1      54.437  32.657  54.054  0.00  0.00     0.094 A 
ATOM      9  C   UNL d   1      54.138  31.916  53.858  0.00  0.00     0.026 A 
ENDROOT
BRANCH   2  10
ATOM     10  C   UNL d   1      51.357  33.787  52.699  0.00  0.00     0.023 A 
ATOM     11  C   UNL d   1      51.321  34.047  51.903  0.00  0.00     0.002 A 
ATOM     12  C   UNL d   1      50.616  34.391  51.614  0.00  0.00     0.000 A 
ATOM     13  C   UNL d   1      49.953  34.472  52.125  0.00  0.00     0.000 A 
ATOM     14  C   UNL d   1      50.004  34.213  52.899  0.00  0.00     0.000 A 
ATOM     15  C   UNL d   1      50.697  33.875  53.182  0.00  0.00     0.002 A 
ENDBRANCH   2  10
BRANCH   1  16
ATOM     16  C   UNL d   1      52.422  34.610  53.257  0.00  0.00     0.302 C 
ATOM     17  O   UNL d   1      52.327  34.949  52.516  0.00  0.00    -0.259 OA
BRANCH  16  18
ATOM     18  O   UNL d   1      52.241  35.056  53.932  0.00  0.00    -0.271 OA
BRANCH  18  19
ATOM     19  C   UNL d   1      52.702  35.718  54.144  0.00  0.00     0.126 C 
ATOM     20  C   UNL d   1      52.584  36.086  54.882  0.00  0.00     0.029 C 
ENDBRANCH  18  19
ENDBRANCH  16  18
ENDBRANCH   1  16
BRANCH   8  21
ATOM     21  O   UNL d   1      55.185  32.733  54.409  0.00  0.00    -0.328 OA
ATOM     22  C   UNL d   1      55.340  33.376  54.930  0.00  0.00     0.181 C 
ENDBRANCH   8  21
TORSDOF 5
ENDMDL
MODEL 8
REMARK VINA RESULT:      -7.3      2.116      3.682
REMARK  5 active torsions:
REMARK  status: ('A' for Active; 'I' for Inactive)
REMARK    1  A    between atoms: C_6  and  C_1 
REMARK    2  A    between atoms: C_7  and  C_2 
REMARK    3  A    between atoms: O_12  and  C_6 
REMARK    4  A    between atoms: O_14  and  C_11 
REMARK    5  A    between atoms: C_17  and  O_12 
ROOT
ATOM      1  C   UNL d   1      52.368  34.121  53.523  0.00  0.00     0.088 A 
ATOM      2  C   UNL d   1      52.695  33.388  53.716  0.00  0.00     0.105 A 
ATOM      3  C   UNL d   1      51.607  34.008  53.234  0.00  0.00     0.032 A 
ATOM      4  O   UNL d   1      52.119  32.813  53.540  0.00  0.00    -0.307 OA
ATOM      5  C   UNL d   1      51.453  33.200  53.244  0.00  0.00     0.100 A 
ATOM      6  C   UNL d   1      51.041  34.531  52.965  0.00  0.00     0.026 A 
ATOM      7  C   UNL d   1      50.719  32.918  52.981  0.00  0.00     0.027 A 
ATOM      8  C   UNL d   1      50.307  34.249  52.702  0.00  0.00     0.094 A 
ATOM      9  C   UNL d   1      50.153  33.441  52.712  0.00  0.00     0.026 A 
ENDROOT
BRANCH   2  10
ATOM     10  C   UNL d   1      53.442  33.235  54.023  0.00  0.00     0.023 A 
ATOM     11  C   UNL d   1      54.098  33.133  53.511  0.00  0.00     0.002 A 
ATOM     12  C   UNL d   1      54.853  32.978  53.836  0.00  0.00     0.000 A 
ATOM     13  C   UNL d   1      54.944  32.927  54.670  0.00  0.00     0.000 A 
ATOM     14  C   UNL d   1      54.294  33.029  55.156  0.00  0.00     0.000 A 
ATOM     15  C   UNL d   1      53.552  33.181  54.836  0.00  0.00     0.002 A 
ENDBRANCH   2  10
BRANCH   1  16
ATOM     16  C   UNL d   1      53.013  34.598  53.734  0.00  0.00     0.302 C 
ATOM     17  O   UNL d   1      53.694  34.597  53.277  0.00  0.00    -0.259 OA
BRANCH  16  18
ATOM     18  O   UNL d   1      52.980  35.080  54.408  0.00  0.00    -0.271 OA
BRANCH  18  19
ATOM     19  C   UNL d   1      53.120  35.900  54.354  0.00  0.00     0.126 C 
ATOM     20  C   UNL d   1      53.026  36.382  55.027  0.00  0.00     0.029 C 
ENDBRANCH  18  19
ENDBRANCH  16  18
ENDBRANCH   1  16
BRANCH   8  21
ATOM     21  O   UNL d   1      49.736  34.787  52.430  0.00  0.00    -0.328 OA
ATOM     22  C   UNL d   1      49.198  35.141  52.973  0.00  0.00     0.181 C 
ENDBRANCH   8  21
TORSDOF 5
ENDMDL
