MODEL 1
REMARK VINA RESULT:      -7.5      0.000      0.000
REMARK  4 active torsions:
REMARK  status: ('A' for Active; 'I' for Inactive)
REMARK    1  A    between atoms: S_6  and  C_1 
REMARK    2  A    between atoms: C_7  and  S_6 
REMARK    3  A    between atoms: C_10  and  C_7 
REMARK    4  A    between atoms: C_11  and  C_10 
ROOT
ATOM      1  C   UNL d   1      53.422  32.630  53.855  0.00  0.00     0.194 A 
ATOM      2  N   UNL d   1      53.079  33.133  53.272  0.00  0.00    -0.220 NA
ATOM      3  N   UNL d   1      53.574  33.090  54.524  0.00  0.00    -0.220 NA
ATOM      4  C   UNL d   1      53.026  33.876  53.584  0.00  0.00     0.101 A 
ATOM      5  C   UNL d   1      53.338  33.849  54.374  0.00  0.00     0.101 A 
ATOM      6  C   UNL d   1      52.749  34.611  53.312  0.00  0.00     0.021 A 
ATOM      7  C   UNL d   1      53.356  34.533  54.833  0.00  0.00     0.021 A 
ATOM      8  C   UNL d   1      53.071  35.244  54.527  0.00  0.00     0.002 A 
ATOM      9  C   UNL d   1      52.770  35.270  53.764  0.00  0.00     0.002 A 
ENDROOT
BRANCH   1  10
ATOM     10  S   UNL d   1      53.406  31.944  53.399  0.00  0.00    -0.048 SA
BRANCH  10  11
ATOM     11  C   UNL d   1      53.406  31.199  53.756  0.00  0.00     0.038 C 
BRANCH  11  12
ATOM     12  C   UNL d   1      53.388  30.522  53.286  0.00  0.00     0.007 C 
BRANCH  12  13
ATOM     13  C   UNL d   1      53.190  29.813  53.633  0.00  0.00     0.001 C 
ATOM     14  C   UNL d   1      52.573  29.374  53.306  0.00  0.00     0.000 C 
ATOM     15  C   UNL d   1      53.439  29.358  54.270  0.00  0.00     0.000 C 
ENDBRANCH  12  13
ENDBRANCH  11  12
ENDBRANCH  10  11
ENDBRANCH   1  10
TORSDOF 4
ENDMDL
MODEL 2
REMARK VINA RESULT:      -7.2      2.105      3.547
REMARK  4 active torsions:
REMARK  status: ('A' for Active; 'I' for Inactive)
REMARK    1  A    between atoms: S_6  and  C_1 
REMARK    2  A    between atoms: C_7  and  S_6 
REMARK    3  A    between atoms: C_10  and  C_7 
REMARK    4  A    between atoms: C_11  and  C_10 
ROOT
ATOM      1  C   UNL d   1      52.468  33.805  53.612  0.00  0.00     0.194 A 
ATOM      2  N   UNL d   1      53.063  33.320  53.265  0.00  0.00    -0.220 NA
ATOM      3  N   UNL d   1      52.749  34.056  54.348  0.00  0.00    -0.220 NA
ATOM      4  C   UNL d   1      53.685  33.281  53.778  0.00  0.00     0.101 A 
ATOM      5  C   UNL d   1      53.487  33.745  54.462  0.00  0.00     0.101 A 
ATOM      6  C   UNL d   1      54.428  32.906  53.778  0.00  0.00     0.021 A 
ATOM      7  C   UNL d   1      54.022  33.809  55.086  0.00  0.00     0.021 A 
ATOM      8  C   UNL d   1      54.750  33.422  55.047  0.00  0.00     0.002 A 
ATOM      9  C   UNL d   1      54.941  32.973  54.387  0.00  0.00     0.002 A 
ENDROOT
BRANCH   1  10
ATOM     10  S   UNL d   1      51.931  33.744  52.991  0.00  0.00    -0.048 SA
BRANCH  10  11
ATOM     11  C   UNL d   1      51.215  34.157  53.009  0.00  0.00     0.038 C 
BRANCH  11  12
ATOM     12  C   UNL d   1      50.699  34.105  52.368  0.00  0.00     0.007 C 
BRANCH  12  13
ATOM     13  C   UNL d   1      49.984  34.491  52.413  0.00  0.00     0.001 C 
ATOM     14  C   UNL d   1      49.499  34.501  51.746  0.00  0.00     0.000 C 
ATOM     15  C   UNL d   1      49.556  34.915  52.973  0.00  0.00     0.000 C 
ENDBRANCH  12  13
ENDBRANCH  11  12
ENDBRANCH  10  11
ENDBRANCH   1  10
TORSDOF 4
ENDMDL
MODEL 3
REMARK VINA RESULT:      -7.1      0.820      4.205
REMARK  4 active torsions:
REMARK  status: ('A' for Active; 'I' for Inactive)
REMARK    1  A    between atoms: S_6  and  C_1 
REMARK    2  A    between atoms: C_7  and  S_6 
REMARK    3  A    between atoms: C_10  and  C_7 
REMARK    4  A    between atoms: C_11  and  C_10 
ROOT
ATOM      1  C   UNL d   1      53.226  32.095  53.277  0.00  0.00     0.194 A 
ATOM      2  N   UNL d   1      53.613  31.631  53.865  0.00  0.00    -0.220 NA
ATOM      3  N   UNL d   1      52.794  31.579  52.798  0.00  0.00    -0.220 NA
ATOM      4  C   UNL d   1      53.418  30.857  53.742  0.00  0.00     0.101 A 
ATOM      5  C   UNL d   1      52.901  30.824  53.068  0.00  0.00     0.101 A 
ATOM      6  C   UNL d   1      53.604  30.135  54.111  0.00  0.00     0.021 A 
ATOM      7  C   UNL d   1      52.608  30.099  52.809  0.00  0.00     0.021 A 
ATOM      8  C   UNL d   1      52.816  29.404  53.202  0.00  0.00     0.002 A 
ATOM      9  C   UNL d   1      53.316  29.436  53.853  0.00  0.00     0.002 A 
ENDROOT
BRANCH   1  10
ATOM     10  S   UNL d   1      53.517  32.821  53.534  0.00  0.00    -0.048 SA
BRANCH  10  11
ATOM     11  C   UNL d   1      53.065  33.509  53.453  0.00  0.00     0.038 C 
BRANCH  11  12
ATOM     12  C   UNL d   1      53.331  34.213  53.790  0.00  0.00     0.007 C 
BRANCH  12  13
ATOM     13  C   UNL d   1      52.827  34.851  53.805  0.00  0.00     0.001 C 
ATOM     14  C   UNL d   1      53.024  35.498  54.278  0.00  0.00     0.000 C 
ATOM     15  C   UNL d   1      52.114  35.071  53.460  0.00  0.00     0.000 C 
ENDBRANCH  12  13
ENDBRANCH  11  12
ENDBRANCH  10  11
ENDBRANCH   1  10
TORSDOF 4
ENDMDL
MODEL 4
REMARK VINA RESULT:      -6.6      2.349      3.160
REMARK  4 active torsions:
REMARK  status: ('A' for Active; 'I' for Inactive)
REMARK    1  A    between atoms: S_6  and  C_1 
REMARK    2  A    between atoms: C_7  and  S_6 
REMARK    3  A    between atoms: C_10  and  C_7 
REMARK    4  A    between atoms: C_11  and  C_10 
ROOT
ATOM      1  C   UNL d   1      52.149  33.800  53.367  0.00  0.00     0.194 A 
ATOM      2  N   UNL d   1      52.094  33.796  52.526  0.00  0.00    -0.220 NA
ATOM      3  N   UNL d   1      51.413  34.031  53.663  0.00  0.00    -0.220 NA
ATOM      4  C   UNL d   1      51.345  34.018  52.323  0.00  0.00     0.101 A 
ATOM      5  C   UNL d   1      50.915  34.166  53.041  0.00  0.00     0.101 A 
ATOM      6  C   UNL d   1      50.934  34.125  51.608  0.00  0.00     0.021 A 
ATOM      7  C   UNL d   1      50.127  34.404  53.007  0.00  0.00     0.021 A 
ATOM      8  C   UNL d   1      49.754  34.499  52.277  0.00  0.00     0.002 A 
ATOM      9  C   UNL d   1      50.170  34.356  51.584  0.00  0.00     0.002 A 
ENDROOT
BRANCH   1  10
ATOM     10  S   UNL d   1      52.936  33.562  53.404  0.00  0.00    -0.048 SA
BRANCH  10  11
ATOM     11  C   UNL d   1      53.337  33.540  54.127  0.00  0.00     0.038 C 
BRANCH  11  12
ATOM     12  C   UNL d   1      54.129  33.311  54.147  0.00  0.00     0.007 C 
BRANCH  12  13
ATOM     13  C   UNL d   1      54.509  33.290  54.866  0.00  0.00     0.001 C 
ATOM     14  C   UNL d   1      55.212  33.713  54.952  0.00  0.00     0.000 C 
ATOM     15  C   UNL d   1      54.398  32.943  55.603  0.00  0.00     0.000 C 
ENDBRANCH  12  13
ENDBRANCH  11  12
ENDBRANCH  10  11
ENDBRANCH   1  10
TORSDOF 4
ENDMDL
MODEL 5
REMARK VINA RESULT:      -4.8     10.879     11.242
REMARK  4 active torsions:
REMARK  status: ('A' for Active; 'I' for Inactive)
REMARK    1  A    between atoms: S_6  and  C_1 
REMARK    2  A    between atoms: C_7  and  S_6 
REMARK    3  A    between atoms: C_10  and  C_7 
REMARK    4  A    between atoms: C_11  and  C_10 
ROOT
ATOM      1  C   UNL d   1      44.674  30.858  60.311  0.00  0.00     0.194 A 
ATOM      2  N   UNL d   1      44.735  30.143  60.753  0.00  0.00    -0.220 NA
ATOM      3  N   UNL d   1      44.510  31.467  60.844  0.00  0.00    -0.220 NA
ATOM      4  C   UNL d   1      44.610  30.319  61.531  0.00  0.00     0.101 A 
ATOM      5  C   UNL d   1      44.469  31.155  61.588  0.00  0.00     0.101 A 
ATOM      6  C   UNL d   1      44.593  29.883  62.239  0.00  0.00     0.021 A 
ATOM      7  C   UNL d   1      44.323  31.498  62.323  0.00  0.00     0.021 A 
ATOM      8  C   UNL d   1      44.314  31.031  63.004  0.00  0.00     0.002 A 
ATOM      9  C   UNL d   1      44.451  30.224  62.948  0.00  0.00     0.002 A 
ENDROOT
BRANCH   1  10
ATOM     10  S   UNL d   1      44.819  30.518  59.575  0.00  0.00    -0.048 SA
BRANCH  10  11
ATOM     11  C   UNL d   1      44.733  30.960  58.881  0.00  0.00     0.038 C 
BRANCH  11  12
ATOM     12  C   UNL d   1      44.845  30.596  58.150  0.00  0.00     0.007 C 
BRANCH  12  13
ATOM     13  C   UNL d   1      44.711  31.030  57.475  0.00  0.00     0.001 C 
ATOM     14  C   UNL d   1      44.611  30.628  56.762  0.00  0.00     0.000 C 
ATOM     15  C   UNL d   1      44.637  31.821  57.266  0.00  0.00     0.000 C 
ENDBRANCH  12  13
ENDBRANCH  11  12
ENDBRANCH  10  11
ENDBRANCH   1  10
TORSDOF 4
ENDMDL
MODEL 6
REMARK VINA RESULT:      -4.7      4.437      5.465
REMARK  4 active torsions:
REMARK  status: ('A' for Active; 'I' for Inactive)
REMARK    1  A    between atoms: S_6  and  C_1 
REMARK    2  A    between atoms: C_7  and  S_6 
REMARK    3  A    between atoms: C_10  and  C_7 
REMARK    4  A    between atoms: C_11  and  C_10 
ROOT
ATOM      1  C   UNL d   1      49.049  35.086  52.613  0.00  0.00     0.194 A 
ATOM      2  N   UNL d   1      48.739  35.616  53.189  0.00  0.00    -0.220 NA
ATOM      3  N   UNL d   1      48.529  35.085  51.970  0.00  0.00    -0.220 NA
ATOM      4  C   UNL d   1      48.051  35.925  52.902  0.00  0.00     0.101 A 
ATOM      5  C   UNL d   1      47.919  35.590  52.132  0.00  0.00     0.101 A 
ATOM      6  C   UNL d   1      47.484  36.466  53.181  0.00  0.00     0.021 A 
ATOM      7  C   UNL d   1      47.252  35.806  51.698  0.00  0.00     0.021 A 
ATOM      8  C   UNL d   1      46.712  36.346  52.011  0.00  0.00     0.002 A 
ATOM      9  C   UNL d   1      46.840  36.669  52.754  0.00  0.00     0.002 A 
ENDROOT
BRANCH   1  10
ATOM     10  S   UNL d   1      49.717  34.869  53.043  0.00  0.00    -0.048 SA
BRANCH  10  11
ATOM     11  C   UNL d   1      50.329  34.443  52.686  0.00  0.00     0.038 C 
BRANCH  11  12
ATOM     12  C   UNL d   1      50.913  34.099  53.156  0.00  0.00     0.007 C 
BRANCH  12  13
ATOM     13  C   UNL d   1      51.639  33.945  52.822  0.00  0.00     0.001 C 
ATOM     14  C   UNL d   1      51.917  33.169  52.825  0.00  0.00     0.000 C 
ATOM     15  C   UNL d   1      52.237  34.366  52.447  0.00  0.00     0.000 C 
ENDBRANCH  12  13
ENDBRANCH  11  12
ENDBRANCH  10  11
ENDBRANCH   1  10
TORSDOF 4
ENDMDL
MODEL 7
REMARK VINA RESULT:      -4.6      9.578     10.107
REMARK  4 active torsions:
REMARK  status: ('A' for Active; 'I' for Inactive)
REMARK    1  A    between atoms: S_6  and  C_1 
REMARK    2  A    between atoms: C_7  and  S_6 
REMARK    3  A    between atoms: C_10  and  C_7 
REMARK    4  A    between atoms: C_11  and  C_10 
ROOT
ATOM      1  C   UNL d   1      44.993  28.741  57.882  0.00  0.00     0.194 A 
ATOM      2  N   UNL d   1      45.171  29.278  58.506  0.00  0.00    -0.220 NA
ATOM      3  N   UNL d   1      44.753  29.189  57.230  0.00  0.00    -0.220 NA
ATOM      4  C   UNL d   1      45.042  30.028  58.238  0.00  0.00     0.101 A 
ATOM      5  C   UNL d   1      44.777  29.972  57.432  0.00  0.00     0.101 A 
ATOM      6  C   UNL d   1      45.108  30.791  58.562  0.00  0.00     0.021 A 
ATOM      7  C   UNL d   1      44.600  30.656  57.008  0.00  0.00     0.021 A 
ATOM      8  C   UNL d   1      44.678  31.396  57.365  0.00  0.00     0.002 A 
ATOM      9  C   UNL d   1      44.934  31.450  58.144  0.00  0.00     0.002 A 
ENDROOT
BRANCH   1  10
ATOM     10  S   UNL d   1      45.170  28.056  58.302  0.00  0.00    -0.048 SA
BRANCH  10  11
ATOM     11  C   UNL d   1      44.919  27.317  58.028  0.00  0.00     0.038 C 
BRANCH  11  12
ATOM     12  C   UNL d   1      45.146  26.635  58.433  0.00  0.00     0.007 C 
BRANCH  12  13
ATOM     13  C   UNL d   1      44.810  25.926  58.217  0.00  0.00     0.001 C 
ATOM     14  C   UNL d   1      44.556  25.414  58.812  0.00  0.00     0.000 C 
ATOM     15  C   UNL d   1      44.628  25.525  57.523  0.00  0.00     0.000 C 
ENDBRANCH  12  13
ENDBRANCH  11  12
ENDBRANCH  10  11
ENDBRANCH   1  10
TORSDOF 4
ENDMDL
