MODEL 1
REMARK VINA RESULT:      39.0      0.000      0.000
REMARK  8 active torsions:
REMARK  status: ('A' for Active; 'I' for Inactive)
REMARK       I    between atoms: C_2  and  N_1 
REMARK    1  A    between atoms: C_3  and  N_1 
REMARK    2  A    between atoms: C_4  and  N_1 
REMARK    3  A    between atoms: C_6  and  C_2 
REMARK    4  A    between atoms: C_5  and  C_4 
REMARK    5  A    between atoms: C_7  and  C_5 
REMARK    6  A    between atoms: O_19  and  C_7 
REMARK    7  A    between atoms: C_9  and  O_11 
REMARK    8  A    between atoms: O_11  and  C_16 
ROOT
ATOM      1  N   UNL d   1      13.835  13.572  -3.358  0.00  0.00    -0.258 N 
ATOM      2  C   UNL d   1      13.824  14.359  -3.607  0.00  0.00     0.266 C 
ATOM      3  O   UNL d   1      13.517  14.554  -4.346  0.00  0.00    -0.267 OA
ENDROOT
BRANCH   1   4
ATOM      4  C   UNL d   1      13.534  12.979  -3.855  0.00  0.00     0.150 A 
ATOM      5  N   UNL d   1      13.695  12.993  -4.663  0.00  0.00    -0.227 NA
ATOM      6  C   UNL d   1      13.396  12.403  -5.151  0.00  0.00     0.101 A 
ATOM      7  C   UNL d   1      12.931  11.794  -4.831  0.00  0.00     0.021 A 
ATOM      8  C   UNL d   1      12.770  11.780  -4.025  0.00  0.00     0.005 A 
ATOM      9  C   UNL d   1      13.070  12.370  -3.535  0.00  0.00     0.037 A 
ENDBRANCH   1   4
BRANCH   1  10
ATOM     10  C   UNL d   1      14.139  13.372  -2.626  0.00  0.00     0.090 C 
BRANCH  10  11
ATOM     11  C   UNL d   1      14.190  12.570  -2.404  0.00  0.00     0.087 C 
BRANCH  11  12
ATOM     12  C   UNL d   1      14.505  12.359  -1.673  0.00  0.00     0.297 C 
ATOM     13  O   UNL d   1      15.190  12.729  -1.396  0.00  0.00    -0.259 OA
BRANCH  12  14
ATOM     14  O   UNL d   1      14.136  11.781  -1.217  0.00  0.00    -0.296 OA
ATOM     15  C   UNL d   1      14.328  11.972  -0.432  0.00  0.00     0.185 C 
ENDBRANCH  12  14
ENDBRANCH  11  12
ENDBRANCH  10  11
ENDBRANCH   1  10
BRANCH   2  16
ATOM     16  C   UNL d   1      14.124  14.948  -3.113  0.00  0.00     0.057 A 
ATOM     17  C   UNL d   1      14.748  15.418  -3.373  0.00  0.00     0.007 A 
ATOM     18  C   UNL d   1      15.043  16.005  -2.875  0.00  0.00     0.025 A 
ATOM     19  C   UNL d   1      14.716  16.121  -2.127  0.00  0.00     0.103 A 
ATOM     20  C   UNL d   1      14.092  15.646  -1.876  0.00  0.00     0.025 A 
ATOM     21  C   UNL d   1      13.786  15.051  -2.367  0.00  0.00     0.007 A 
BRANCH  19  22
ATOM     22  O   UNL d   1      15.012  16.708  -1.630  0.00  0.00    -0.273 OA
BRANCH  22  23
ATOM     23  C   UNL d   1      15.348  16.504  -0.905  0.00  0.00     0.300 C 
ATOM     24  O   UNL d   1      14.892  16.132  -0.328  0.00  0.00    -0.259 OA
ATOM     25  C   UNL d   1      16.148  16.675  -0.758  0.00  0.00     0.074 C 
ENDBRANCH  22  23
ENDBRANCH  19  22
ENDBRANCH   2  16
TORSDOF 8
ENDMDL
