MODEL 1
REMARK VINA RESULT:      -8.0      0.000      0.000
REMARK  5 active torsions:
REMARK  status: ('A' for Active; 'I' for Inactive)
REMARK       I    between atoms: N_2  and  C_5 
REMARK    1  A    between atoms: C_3  and  N_2 
REMARK    2  A    between atoms: C_14  and  C_4 
REMARK    3  A    between atoms: C_5  and  C_13 
REMARK    4  A    between atoms: C_17  and  C_6 
REMARK    5  A    between atoms: C_13  and  C_14 
ROOT
ATOM      1  N   UNL d   1     -49.752  11.431  23.030  0.00  0.00    -0.208 NA
ATOM      2  C   UNL d   1     -48.976  11.450  23.284  0.00  0.00     0.279 C 
ATOM      3  O   UNL d   1     -48.658  10.805  23.698  0.00  0.00    -0.265 OA
ENDROOT
BRANCH   2   4
ATOM      4  C   UNL d   1     -48.507  12.110  23.129  0.00  0.00     0.065 C 
BRANCH   4   5
ATOM      5  C   UNL d   1     -47.777  12.198  23.504  0.00  0.00     0.030 C 
BRANCH   5   6
ATOM      6  C   UNL d   1     -47.238  12.755  23.233  0.00  0.00     0.100 A 
ATOM      7  O   UNL d   1     -47.308  13.581  23.296  0.00  0.00    -0.307 OA
ATOM      8  C   UNL d   1     -46.648  13.921  22.953  0.00  0.00     0.100 A 
ATOM      9  C   UNL d   1     -46.162  13.316  22.674  0.00  0.00     0.027 A 
ATOM     10  C   UNL d   1     -46.529  12.599  22.848  0.00  0.00     0.027 A 
BRANCH   8  11
ATOM     11  C   UNL d   1     -46.501  14.726  22.899  0.00  0.00     0.025 C 
ATOM     12  C   UNL d   1     -47.043  15.220  22.514  0.00  0.00     0.002 C 
ENDBRANCH   8  11
ENDBRANCH   5   6
ENDBRANCH   4   5
ENDBRANCH   2   4
BRANCH   1  13
ATOM     13  C   UNL d   1     -50.068  12.074  22.617  0.00  0.00     0.085 A 
ATOM     14  C   UNL d   1     -50.678  12.512  22.952  0.00  0.00     0.018 A 
ATOM     15  C   UNL d   1     -50.992  13.151  22.541  0.00  0.00     0.002 A 
ATOM     16  C   UNL d   1     -50.972  12.308  23.698  0.00  0.00     0.002 C 
ATOM     17  C   UNL d   1     -50.694  13.348  21.798  0.00  0.00     0.000 A 
ATOM     18  C   UNL d   1     -50.084  12.911  21.463  0.00  0.00     0.002 A 
ATOM     19  C   UNL d   1     -51.013  13.994  21.384  0.00  0.00     0.000 C 
ATOM     20  C   UNL d   1     -49.770  12.265  21.884  0.00  0.00     0.019 A 
ENDBRANCH   1  13
TORSDOF 5
ENDMDL
MODEL 2
REMARK VINA RESULT:      -7.8      1.148      1.613
REMARK  5 active torsions:
REMARK  status: ('A' for Active; 'I' for Inactive)
REMARK       I    between atoms: N_2  and  C_5 
REMARK    1  A    between atoms: C_3  and  N_2 
REMARK    2  A    between atoms: C_14  and  C_4 
REMARK    3  A    between atoms: C_5  and  C_13 
REMARK    4  A    between atoms: C_17  and  C_6 
REMARK    5  A    between atoms: C_13  and  C_14 
ROOT
ATOM      1  N   UNL d   1     -50.591  12.423  22.982  0.00  0.00    -0.208 NA
ATOM      2  C   UNL d   1     -49.944  11.928  23.034  0.00  0.00     0.279 C 
ATOM      3  O   UNL d   1     -50.048  11.105  23.014  0.00  0.00    -0.265 OA
ENDROOT
BRANCH   2   4
ATOM      4  C   UNL d   1     -49.186  12.245  23.106  0.00  0.00     0.065 C 
BRANCH   4   5
ATOM      5  C   UNL d   1     -48.524  11.770  22.975  0.00  0.00     0.030 C 
BRANCH   5   6
ATOM      6  C   UNL d   1     -47.770  12.078  23.076  0.00  0.00     0.100 A 
ATOM      7  O   UNL d   1     -47.382  12.610  22.568  0.00  0.00    -0.307 OA
ATOM      8  C   UNL d   1     -46.644  12.770  22.879  0.00  0.00     0.100 A 
ATOM      9  C   UNL d   1     -46.561  12.343  23.580  0.00  0.00     0.027 A 
ATOM     10  C   UNL d   1     -47.258  11.919  23.697  0.00  0.00     0.027 A 
BRANCH   8  11
ATOM     11  C   UNL d   1     -46.084  13.270  22.547  0.00  0.00     0.025 C 
ATOM     12  C   UNL d   1     -46.178  14.091  22.605  0.00  0.00     0.002 C 
ENDBRANCH   8  11
ENDBRANCH   5   6
ENDBRANCH   4   5
ENDBRANCH   2   4
BRANCH   1  13
ATOM     13  C   UNL d   1     -50.488  13.243  23.001  0.00  0.00     0.085 A 
ATOM     14  C   UNL d   1     -50.693  13.695  22.346  0.00  0.00     0.018 A 
ATOM     15  C   UNL d   1     -50.590  14.510  22.366  0.00  0.00     0.002 A 
ATOM     16  C   UNL d   1     -51.001  13.328  21.672  0.00  0.00     0.002 C 
ATOM     17  C   UNL d   1     -50.281  14.869  23.042  0.00  0.00     0.000 A 
ATOM     18  C   UNL d   1     -50.076  14.417  23.697  0.00  0.00     0.002 A 
ATOM     19  C   UNL d   1     -50.178  15.693  23.061  0.00  0.00     0.000 C 
ATOM     20  C   UNL d   1     -50.183  13.592  23.671  0.00  0.00     0.019 A 
ENDBRANCH   1  13
TORSDOF 5
ENDMDL
MODEL 3
REMARK VINA RESULT:      -7.7      1.497      2.573
REMARK  5 active torsions:
REMARK  status: ('A' for Active; 'I' for Inactive)
REMARK       I    between atoms: N_2  and  C_5 
REMARK    1  A    between atoms: C_3  and  N_2 
REMARK    2  A    between atoms: C_14  and  C_4 
REMARK    3  A    between atoms: C_5  and  C_13 
REMARK    4  A    between atoms: C_17  and  C_6 
REMARK    5  A    between atoms: C_13  and  C_14 
ROOT
ATOM      1  N   UNL d   1     -48.835  15.231  22.334  0.00  0.00    -0.208 NA
ATOM      2  C   UNL d   1     -48.037  15.138  22.477  0.00  0.00     0.279 C 
ATOM      3  O   UNL d   1     -47.539  15.802  22.505  0.00  0.00    -0.265 OA
ENDROOT
BRANCH   2   4
ATOM      4  C   UNL d   1     -47.722  14.385  22.592  0.00  0.00     0.065 C 
BRANCH   4   5
ATOM      5  C   UNL d   1     -46.934  14.294  22.821  0.00  0.00     0.030 C 
BRANCH   5   6
ATOM      6  C   UNL d   1     -46.612  13.543  22.901  0.00  0.00     0.100 A 
ATOM      7  O   UNL d   1     -46.889  12.938  23.400  0.00  0.00    -0.307 OA
ATOM      8  C   UNL d   1     -46.405  12.286  23.304  0.00  0.00     0.100 A 
ATOM      9  C   UNL d   1     -45.825  12.474  22.748  0.00  0.00     0.027 A 
ATOM     10  C   UNL d   1     -45.957  13.250  22.503  0.00  0.00     0.027 A 
BRANCH   8  11
ATOM     11  C   UNL d   1     -46.488  11.570  23.696  0.00  0.00     0.025 C 
ATOM     12  C   UNL d   1     -47.200  11.151  23.644  0.00  0.00     0.002 C 
ENDBRANCH   8  11
ENDBRANCH   5   6
ENDBRANCH   4   5
ENDBRANCH   2   4
BRANCH   1  13
ATOM     13  C   UNL d   1     -49.330  14.570  22.306  0.00  0.00     0.085 A 
ATOM     14  C   UNL d   1     -49.914  14.474  22.877  0.00  0.00     0.018 A 
ATOM     15  C   UNL d   1     -50.406  13.816  22.847  0.00  0.00     0.002 A 
ATOM     16  C   UNL d   1     -50.003  15.038  23.475  0.00  0.00     0.002 C 
ATOM     17  C   UNL d   1     -50.311  13.257  22.248  0.00  0.00     0.000 A 
ATOM     18  C   UNL d   1     -49.727  13.354  21.677  0.00  0.00     0.002 A 
ATOM     19  C   UNL d   1     -50.809  12.593  22.220  0.00  0.00     0.000 C 
ATOM     20  C   UNL d   1     -49.232  14.022  21.711  0.00  0.00     0.019 A 
ENDBRANCH   1  13
TORSDOF 5
ENDMDL
MODEL 4
REMARK VINA RESULT:      -7.4      1.554      4.238
REMARK  5 active torsions:
REMARK  status: ('A' for Active; 'I' for Inactive)
REMARK       I    between atoms: N_2  and  C_5 
REMARK    1  A    between atoms: C_3  and  N_2 
REMARK    2  A    between atoms: C_14  and  C_4 
REMARK    3  A    between atoms: C_5  and  C_13 
REMARK    4  A    between atoms: C_17  and  C_6 
REMARK    5  A    between atoms: C_13  and  C_14 
ROOT
ATOM      1  N   UNL d   1     -46.570  14.324  22.799  0.00  0.00    -0.208 NA
ATOM      2  C   UNL d   1     -47.291  14.640  22.581  0.00  0.00     0.279 C 
ATOM      3  O   UNL d   1     -47.355  15.449  22.408  0.00  0.00    -0.265 OA
ENDROOT
BRANCH   2   4
ATOM      4  C   UNL d   1     -47.957  14.156  22.533  0.00  0.00     0.065 C 
BRANCH   4   5
ATOM      5  C   UNL d   1     -48.647  14.434  22.176  0.00  0.00     0.030 C 
BRANCH   5   6
ATOM      6  C   UNL d   1     -49.304  13.946  22.114  0.00  0.00     0.100 A 
ATOM      7  O   UNL d   1     -49.821  13.733  22.731  0.00  0.00    -0.307 OA
ATOM      8  C   UNL d   1     -50.396  13.241  22.424  0.00  0.00     0.100 A 
ATOM      9  C   UNL d   1     -50.248  13.140  21.619  0.00  0.00     0.027 A 
ATOM     10  C   UNL d   1     -49.574  13.576  21.433  0.00  0.00     0.027 A 
BRANCH   8  11
ATOM     11  C   UNL d   1     -51.014  12.906  22.849  0.00  0.00     0.025 C 
ATOM     12  C   UNL d   1     -50.884  12.221  23.295  0.00  0.00     0.002 C 
ENDBRANCH   8  11
ENDBRANCH   5   6
ENDBRANCH   4   5
ENDBRANCH   2   4
BRANCH   1  13
ATOM     13  C   UNL d   1     -46.507  13.518  22.971  0.00  0.00     0.085 A 
ATOM     14  C   UNL d   1     -45.938  13.063  22.589  0.00  0.00     0.018 A 
ATOM     15  C   UNL d   1     -45.876  12.262  22.761  0.00  0.00     0.002 A 
ATOM     16  C   UNL d   1     -45.434  13.413  22.034  0.00  0.00     0.002 C 
ATOM     17  C   UNL d   1     -46.382  11.919  23.314  0.00  0.00     0.000 A 
ATOM     18  C   UNL d   1     -46.951  12.374  23.697  0.00  0.00     0.002 A 
ATOM     19  C   UNL d   1     -46.318  11.109  23.487  0.00  0.00     0.000 C 
ATOM     20  C   UNL d   1     -47.009  13.185  23.519  0.00  0.00     0.019 A 
ENDBRANCH   1  13
TORSDOF 5
ENDMDL
MODEL 5
REMARK VINA RESULT:      -7.2      1.194      3.801
REMARK  5 active torsions:
REMARK  status: ('A' for Active; 'I' for Inactive)
REMARK       I    between atoms: N_2  and  C_5 
REMARK    1  A    between atoms: C_3  and  N_2 
REMARK    2  A    between atoms: C_14  and  C_4 
REMARK    3  A    between atoms: C_5  and  C_13 
REMARK    4  A    between atoms: C_17  and  C_6 
REMARK    5  A    between atoms: C_13  and  C_14 
ROOT
ATOM      1  N   UNL d   1     -46.304  12.014  23.430  0.00  0.00    -0.208 NA
ATOM      2  C   UNL d   1     -46.978  11.555  23.451  0.00  0.00     0.279 C 
ATOM      3  O   UNL d   1     -46.935  10.764  23.698  0.00  0.00    -0.265 OA
ENDROOT
BRANCH   2   4
ATOM      4  C   UNL d   1     -47.704  11.876  23.228  0.00  0.00     0.065 C 
BRANCH   4   5
ATOM      5  C   UNL d   1     -48.382  11.404  23.219  0.00  0.00     0.030 C 
BRANCH   5   6
ATOM      6  C   UNL d   1     -49.104  11.724  22.996  0.00  0.00     0.100 A 
ATOM      7  O   UNL d   1     -49.304  12.013  22.242  0.00  0.00    -0.307 OA
ATOM      8  C   UNL d   1     -50.076  12.279  22.267  0.00  0.00     0.100 A 
ATOM      9  C   UNL d   1     -50.366  12.162  23.030  0.00  0.00     0.027 A 
ATOM     10  C   UNL d   1     -49.763  11.820  23.476  0.00  0.00     0.027 A 
BRANCH   8  11
ATOM     11  C   UNL d   1     -50.488  12.607  21.636  0.00  0.00     0.025 C 
ATOM     12  C   UNL d   1     -50.926  13.301  21.746  0.00  0.00     0.002 C 
ENDBRANCH   8  11
ENDBRANCH   5   6
ENDBRANCH   4   5
ENDBRANCH   2   4
BRANCH   1  13
ATOM     13  C   UNL d   1     -46.347  12.802  23.184  0.00  0.00     0.085 A 
ATOM     14  C   UNL d   1     -45.870  13.063  22.568  0.00  0.00     0.018 A 
ATOM     15  C   UNL d   1     -45.914  13.847  22.325  0.00  0.00     0.002 A 
ATOM     16  C   UNL d   1     -45.349  12.538  22.198  0.00  0.00     0.002 C 
ATOM     17  C   UNL d   1     -46.435  14.366  22.698  0.00  0.00     0.000 A 
ATOM     18  C   UNL d   1     -46.913  14.104  23.314  0.00  0.00     0.002 A 
ATOM     19  C   UNL d   1     -46.478  15.157  22.451  0.00  0.00     0.000 C 
ATOM     20  C   UNL d   1     -46.864  13.310  23.557  0.00  0.00     0.019 A 
ENDBRANCH   1  13
TORSDOF 5
ENDMDL
MODEL 6
REMARK VINA RESULT:      -5.2      1.479      2.360
REMARK  5 active torsions:
REMARK  status: ('A' for Active; 'I' for Inactive)
REMARK       I    between atoms: N_2  and  C_5 
REMARK    1  A    between atoms: C_3  and  N_2 
REMARK    2  A    between atoms: C_14  and  C_4 
REMARK    3  A    between atoms: C_5  and  C_13 
REMARK    4  A    between atoms: C_17  and  C_6 
REMARK    5  A    between atoms: C_13  and  C_14 
ROOT
ATOM      1  N   UNL d   1     -49.943  14.209  22.384  0.00  0.00    -0.208 NA
ATOM      2  C   UNL d   1     -49.235  14.600  22.499  0.00  0.00     0.279 C 
ATOM      3  O   UNL d   1     -49.170  15.406  22.313  0.00  0.00    -0.265 OA
ENDROOT
BRANCH   2   4
ATOM      4  C   UNL d   1     -48.583  14.194  22.801  0.00  0.00     0.065 C 
BRANCH   4   5
ATOM      5  C   UNL d   1     -47.882  14.598  22.964  0.00  0.00     0.030 C 
BRANCH   5   6
ATOM      6  C   UNL d   1     -47.170  14.191  22.995  0.00  0.00     0.100 A 
ATOM      7  O   UNL d   1     -46.739  13.899  22.346  0.00  0.00    -0.307 OA
ATOM      8  C   UNL d   1     -46.067  13.532  22.630  0.00  0.00     0.100 A 
ATOM      9  C   UNL d   1     -46.069  13.589  23.453  0.00  0.00     0.027 A 
ATOM     10  C   UNL d   1     -46.750  13.996  23.673  0.00  0.00     0.027 A 
BRANCH   8  11
ATOM     11  C   UNL d   1     -45.491  13.169  22.170  0.00  0.00     0.025 C 
ATOM     12  C   UNL d   1     -44.907  12.706  22.529  0.00  0.00     0.002 C 
ENDBRANCH   8  11
ENDBRANCH   5   6
ENDBRANCH   4   5
ENDBRANCH   2   4
BRANCH   1  13
ATOM     13  C   UNL d   1     -50.007  13.406  22.569  0.00  0.00     0.085 A 
ATOM     14  C   UNL d   1     -50.183  12.864  21.976  0.00  0.00     0.018 A 
ATOM     15  C   UNL d   1     -50.247  12.066  22.162  0.00  0.00     0.002 A 
ATOM     16  C   UNL d   1     -50.295  13.125  21.199  0.00  0.00     0.002 C 
ATOM     17  C   UNL d   1     -50.134  11.814  22.939  0.00  0.00     0.000 A 
ATOM     18  C   UNL d   1     -49.958  12.356  23.532  0.00  0.00     0.002 A 
ATOM     19  C   UNL d   1     -50.199  11.007  23.124  0.00  0.00     0.000 C 
ATOM     20  C   UNL d   1     -49.895  13.163  23.338  0.00  0.00     0.019 A 
ENDBRANCH   1  13
TORSDOF 5
ENDMDL
