MODEL 1
REMARK VINA RESULT:      69.4      0.000      0.000
REMARK  5 active torsions:
REMARK  status: ('A' for Active; 'I' for Inactive)
REMARK    1  A    between atoms: N_6  and  S_1 
REMARK    2  A    between atoms: C_8  and  S_1 
REMARK    3  A    between atoms: C_12  and  C_3 
REMARK    4  A    between atoms: C_4  and  C_11 
REMARK    5  A    between atoms: C_15  and  N_6 
ROOT
ATOM      1  C   UNL d   1     -49.124  27.849  34.560  0.00  0.00     0.018 A 
ATOM      2  C   UNL d   1     -48.219  29.019  35.284  0.00  0.00     0.094 A 
ATOM      3  C   UNL d   1     -49.395  28.219  35.250  0.00  0.00     0.003 A 
ATOM      4  C   UNL d   1     -48.398  28.069  34.236  0.00  0.00     0.003 A 
ATOM      5  C   UNL d   1     -48.942  28.804  35.611  0.00  0.00     0.020 A 
ATOM      6  C   UNL d   1     -47.948  28.650  34.596  0.00  0.00     0.020 A 
ENDROOT
BRANCH   1   7
ATOM      7  C   UNL d   1     -49.577  27.265  34.198  0.00  0.00     0.088 A 
ATOM      8  N   UNL d   1     -50.728  26.533  34.557  0.00  0.00    -0.239 NA
ATOM      9  C   UNL d   1     -50.699  26.135  33.842  0.00  0.00     0.111 A 
ATOM     10  S   UNL d   1     -50.110  26.301  33.306  0.00  0.00    -0.066 SA
ATOM     11  C   UNL d   1     -49.541  26.871  33.481  0.00  0.00     0.056 A 
BRANCH   9  12
ATOM     12  C   UNL d   1     -51.264  25.567  33.665  0.00  0.00     0.024 A 
ATOM     13  C   UNL d   1     -52.055  25.787  33.608  0.00  0.00     0.002 A 
ATOM     14  C   UNL d   1     -52.617  25.213  33.430  0.00  0.00     0.000 A 
ATOM     15  C   UNL d   1     -52.398  24.431  33.309  0.00  0.00     0.000 A 
ATOM     16  C   UNL d   1     -51.600  24.217  33.367  0.00  0.00     0.000 A 
ATOM     17  C   UNL d   1     -51.029  24.792  33.547  0.00  0.00     0.002 A 
ENDBRANCH   9  12
ENDBRANCH   1   7
BRANCH   2  18
ATOM     18  N   UNL d   1     -47.758  29.607  35.644  0.00  0.00    -0.158 NA
BRANCH  18  19
ATOM     19  S   UNL d   1     -47.718  30.354  35.314  0.00  0.00     0.285 S 
ATOM     20  O   UNL d   1     -48.175  30.534  34.650  0.00  0.00    -0.198 OA
ATOM     21  O   UNL d   1     -47.222  30.931  35.641  0.00  0.00    -0.198 OA
BRANCH  19  22
ATOM     22  C   UNL d   1     -47.678  31.108  34.979  0.00  0.00     0.105 A 
ATOM     23  C   UNL d   1     -47.989  31.247  34.225  0.00  0.00     0.013 A 
ATOM     24  C   UNL d   1     -47.954  31.993  33.884  0.00  0.00     0.001 A 
ATOM     25  C   UNL d   1     -47.599  32.617  34.310  0.00  0.00     0.000 A 
ATOM     26  C   UNL d   1     -47.287  32.486  35.064  0.00  0.00     0.001 A 
ATOM     27  C   UNL d   1     -47.558  33.379  33.973  0.00  0.00     0.000 C 
ATOM     28  C   UNL d   1     -47.327  31.727  35.400  0.00  0.00     0.013 A 
ENDBRANCH  19  22
ENDBRANCH  18  19
ENDBRANCH   2  18
TORSDOF 5
ENDMDL
