MODEL 1
REMARK VINA RESULT:      35.5      0.000      0.000
REMARK  7 active torsions:
REMARK  status: ('A' for Active; 'I' for Inactive)
REMARK    1  A    between atoms: C_4  and  C_1 
REMARK    2  A    between atoms: C_13  and  N_3 
REMARK    3  A    between atoms: C_15  and  N_5 
REMARK    4  A    between atoms: C_12  and  C_15 
REMARK    5  A    between atoms: C_18  and  C_13 
REMARK    6  A    between atoms: O_16  and  C_18 
REMARK    7  A    between atoms: C_17  and  O_16 
ROOT
ATOM      1  C   UNL d   1      46.206 -18.842  42.313  0.00  0.00     0.149 A 
ATOM      2  N   UNL d   1      46.235 -19.640  42.526  0.00  0.00    -0.227 NA
ATOM      3  N   UNL d   1      46.318 -18.389  42.998  0.00  0.00    -0.287 N 
ATOM      4  C   UNL d   1      46.418 -18.913  43.640  0.00  0.00     0.083 A 
ATOM      5  C   UNL d   1      46.366 -19.683  43.342  0.00  0.00     0.099 A 
ATOM      6  C   UNL d   1      46.548 -18.790  44.446  0.00  0.00     0.019 A 
ATOM      7  C   UNL d   1      46.444 -20.328  43.850  0.00  0.00     0.021 A 
ATOM      8  C   UNL d   1      46.626 -19.436  44.953  0.00  0.00     0.002 A 
ATOM      9  C   UNL d   1      46.574 -20.198  44.658  0.00  0.00     0.002 A 
ENDROOT
BRANCH   1  10
ATOM     10  C   UNL d   1      46.086 -18.540  41.553  0.00  0.00     0.057 A 
ATOM     11  C   UNL d   1      45.403 -18.168  41.277  0.00  0.00     0.086 A 
ATOM     12  N   UNL d   1      45.532 -17.957  40.487  0.00  0.00    -0.272 N 
ATOM     13  C   UNL d   1      46.294 -18.200  40.279  0.00  0.00     0.265 A 
ATOM     14  C   UNL d   1      46.631 -18.559  40.941  0.00  0.00     0.066 A 
ATOM     15  O   UNL d   1      46.647 -18.099  39.541  0.00  0.00    -0.267 OA
BRANCH  12  16
ATOM     16  C   UNL d   1      44.985 -17.571  40.001  0.00  0.00     0.083 C 
BRANCH  16  17
ATOM     17  C   UNL d   1      45.104 -17.522  39.184  0.00  0.00     0.019 C 
ATOM     18  C   UNL d   1      44.628 -17.027  38.723  0.00  0.00     0.002 C 
ENDBRANCH  16  17
ENDBRANCH  12  16
ENDBRANCH   1  10
BRANCH   3  19
ATOM     19  C   UNL d   1      46.304 -17.573  42.876  0.00  0.00     0.108 C 
BRANCH  19  20
ATOM     20  C   UNL d   1      45.972 -17.076  43.441  0.00  0.00     0.142 C 
BRANCH  20  21
ATOM     21  O   UNL d   1      46.334 -16.366  43.631  0.00  0.00    -0.304 OA
BRANCH  21  22
ATOM     22  C   UNL d   1      45.930 -15.799  44.069  0.00  0.00     0.100 A 
ATOM     23  C   UNL d   1      45.119 -15.835  44.127  0.00  0.00     0.025 A 
ATOM     24  C   UNL d   1      44.719 -15.267  44.565  0.00  0.00     0.002 A 
ATOM     25  C   UNL d   1      45.134 -14.670  44.939  0.00  0.00     0.000 A 
ATOM     26  C   UNL d   1      45.958 -14.644  44.872  0.00  0.00     0.002 A 
ATOM     27  C   UNL d   1      46.354 -15.205  44.440  0.00  0.00     0.025 A 
ENDBRANCH  21  22
ENDBRANCH  20  21
ENDBRANCH  19  20
ENDBRANCH   3  19
TORSDOF 7
ENDMDL
