MODEL 1
REMARK VINA RESULT:      -7.8      0.000      0.000
REMARK  7 active torsions:
REMARK  status: ('A' for Active; 'I' for Inactive)
REMARK    1  A    between atoms: N_10  and  C_1 
REMARK    2  A    between atoms: C_11  and  C_2 
REMARK    3  A    between atoms: C_7  and  S_14 
REMARK       I    between atoms: C_13  and  N_10 
REMARK    4  A    between atoms: O_18  and  C_11 
REMARK    5  A    between atoms: C_17  and  C_13 
REMARK    6  A    between atoms: S_14  and  C_17 
REMARK    7  A    between atoms: C_22  and  O_18 
ROOT
ATOM      1  C   UNL d   1      53.209  32.454  53.117  0.00  0.00     0.119 A 
ATOM      2  C   UNL d   1      52.814  33.080  53.485  0.00  0.00     0.088 A 
ATOM      3  S   UNL d   1      53.936  32.365  53.460  0.00  0.00    -0.068 SA
ATOM      4  C   UNL d   1      53.321  33.382  54.072  0.00  0.00     0.013 A 
ATOM      5  C   UNL d   1      54.018  32.940  54.059  0.00  0.00     0.031 A 
ATOM      6  C   UNL d   1      53.120  34.022  54.567  0.00  0.00     0.001 A 
ATOM      7  C   UNL d   1      54.690  33.023  54.534  0.00  0.00     0.006 A 
ATOM      8  C   UNL d   1      53.574  34.365  55.163  0.00  0.00     0.000 A 
ATOM      9  C   UNL d   1      54.822  33.574  55.140  0.00  0.00     0.001 A 
ATOM     10  C   UNL d   1      54.328  34.163  55.414  0.00  0.00     0.000 A 
ENDROOT
BRANCH   1  11
ATOM     11  N   UNL d   1      52.913  31.987  52.496  0.00  0.00    -0.201 NA
ATOM     12  C   UNL d   1      52.915  31.159  52.561  0.00  0.00     0.286 C 
ATOM     13  O   UNL d   1      52.620  30.705  51.939  0.00  0.00    -0.265 OA
BRANCH  12  14
ATOM     14  C   UNL d   1      53.209  30.792  53.237  0.00  0.00     0.100 C 
BRANCH  14  15
ATOM     15  S   UNL d   1      53.306  29.971  53.255  0.00  0.00    -0.054 SA
BRANCH  15  16
ATOM     16  C   UNL d   1      53.190  29.553  53.956  0.00  0.00     0.164 A 
ATOM     17  S   UNL d   1      53.723  29.246  54.508  0.00  0.00    -0.039 SA
ATOM     18  C   UNL d   1      53.279  28.875  55.109  0.00  0.00     0.134 A 
ATOM     19  C   UNL d   1      53.588  28.493  55.774  0.00  0.00     0.030 C 
ATOM     20  N   UNL d   1      52.481  28.958  54.920  0.00  0.00    -0.140 NA
ATOM     21  N   UNL d   1      52.420  29.374  54.212  0.00  0.00    -0.134 NA
ENDBRANCH  15  16
ENDBRANCH  14  15
ENDBRANCH  12  14
ENDBRANCH   1  11
BRANCH   2  22
ATOM     22  C   UNL d   1      52.059  33.359  53.307  0.00  0.00     0.302 C 
ATOM     23  O   UNL d   1      51.412  33.153  53.787  0.00  0.00    -0.259 OA
BRANCH  22  24
ATOM     24  O   UNL d   1      51.942  33.849  52.647  0.00  0.00    -0.271 OA
BRANCH  24  25
ATOM     25  C   UNL d   1      51.192  34.145  52.478  0.00  0.00     0.126 C 
ATOM     26  C   UNL d   1      51.024  34.461  51.736  0.00  0.00     0.029 C 
ENDBRANCH  24  25
ENDBRANCH  22  24
ENDBRANCH   2  22
TORSDOF 7
ENDMDL
MODEL 2
REMARK VINA RESULT:      -7.0      2.204      4.552
REMARK  7 active torsions:
REMARK  status: ('A' for Active; 'I' for Inactive)
REMARK    1  A    between atoms: N_10  and  C_1 
REMARK    2  A    between atoms: C_11  and  C_2 
REMARK    3  A    between atoms: C_7  and  S_14 
REMARK       I    between atoms: C_13  and  N_10 
REMARK    4  A    between atoms: O_18  and  C_11 
REMARK    5  A    between atoms: C_17  and  C_13 
REMARK    6  A    between atoms: S_14  and  C_17 
REMARK    7  A    between atoms: C_22  and  O_18 
ROOT
ATOM      1  C   UNL d   1      53.270  33.058  53.151  0.00  0.00     0.119 A 
ATOM      2  C   UNL d   1      53.778  32.571  53.583  0.00  0.00     0.088 A 
ATOM      3  S   UNL d   1      52.689  32.601  52.821  0.00  0.00    -0.068 SA
ATOM      4  C   UNL d   1      53.495  31.791  53.513  0.00  0.00     0.013 A 
ATOM      5  C   UNL d   1      52.819  31.807  53.040  0.00  0.00     0.031 A 
ATOM      6  C   UNL d   1      53.862  31.136  53.875  0.00  0.00     0.001 A 
ATOM      7  C   UNL d   1      52.338  31.176  52.808  0.00  0.00     0.006 A 
ATOM      8  C   UNL d   1      53.633  30.345  53.844  0.00  0.00     0.000 A 
ATOM      9  C   UNL d   1      52.422  30.373  52.997  0.00  0.00     0.001 A 
ATOM     10  C   UNL d   1      52.994  30.011  53.454  0.00  0.00     0.000 A 
ENDROOT
BRANCH   1  11
ATOM     11  N   UNL d   1      53.338  33.882  53.064  0.00  0.00    -0.201 NA
ATOM     12  C   UNL d   1      52.657  34.346  52.957  0.00  0.00     0.286 C 
ATOM     13  O   UNL d   1      52.735  35.162  52.872  0.00  0.00    -0.265 OA
BRANCH  12  14
ATOM     14  C   UNL d   1      51.911  33.998  52.936  0.00  0.00     0.100 C 
BRANCH  14  15
ATOM     15  S   UNL d   1      51.244  34.430  53.164  0.00  0.00    -0.054 SA
BRANCH  15  16
ATOM     16  C   UNL d   1      50.561  34.418  52.702  0.00  0.00     0.164 A 
ATOM     17  S   UNL d   1      50.450  34.345  51.886  0.00  0.00    -0.039 SA
ATOM     18  C   UNL d   1      49.629  34.369  51.741  0.00  0.00     0.134 A 
ATOM     19  C   UNL d   1      49.267  34.315  50.999  0.00  0.00     0.030 C 
ATOM     20  N   UNL d   1      49.247  34.456  52.466  0.00  0.00    -0.140 NA
ATOM     21  N   UNL d   1      49.815  34.486  53.062  0.00  0.00    -0.134 NA
ENDBRANCH  15  16
ENDBRANCH  14  15
ENDBRANCH  12  14
ENDBRANCH   1  11
BRANCH   2  22
ATOM     22  C   UNL d   1      54.445  32.808  54.008  0.00  0.00     0.302 C 
ATOM     23  O   UNL d   1      55.190  32.829  53.642  0.00  0.00    -0.259 OA
BRANCH  22  24
ATOM     24  O   UNL d   1      54.371  33.026  54.806  0.00  0.00    -0.271 OA
BRANCH  24  25
ATOM     25  C   UNL d   1      54.993  33.407  55.190  0.00  0.00     0.126 C 
ATOM     26  C   UNL d   1      54.885  33.737  55.937  0.00  0.00     0.029 C 
ENDBRANCH  24  25
ENDBRANCH  22  24
ENDBRANCH   2  22
TORSDOF 7
ENDMDL
MODEL 3
REMARK VINA RESULT:      -6.2      1.437      2.725
REMARK  7 active torsions:
REMARK  status: ('A' for Active; 'I' for Inactive)
REMARK    1  A    between atoms: N_10  and  C_1 
REMARK    2  A    between atoms: C_11  and  C_2 
REMARK    3  A    between atoms: C_7  and  S_14 
REMARK       I    between atoms: C_13  and  N_10 
REMARK    4  A    between atoms: O_18  and  C_11 
REMARK    5  A    between atoms: C_17  and  C_13 
REMARK    6  A    between atoms: S_14  and  C_17 
REMARK    7  A    between atoms: C_22  and  O_18 
ROOT
ATOM      1  C   UNL d   1      53.015  33.700  53.233  0.00  0.00     0.119 A 
ATOM      2  C   UNL d   1      52.538  34.228  53.653  0.00  0.00     0.088 A 
ATOM      3  S   UNL d   1      52.580  33.372  52.635  0.00  0.00    -0.068 SA
ATOM      4  C   UNL d   1      51.786  34.220  53.296  0.00  0.00     0.013 A 
ATOM      5  C   UNL d   1      51.809  33.690  52.664  0.00  0.00     0.031 A 
ATOM      6  C   UNL d   1      51.148  34.684  53.563  0.00  0.00     0.001 A 
ATOM      7  C   UNL d   1      51.204  33.488  52.138  0.00  0.00     0.006 A 
ATOM      8  C   UNL d   1      50.384  34.722  53.255  0.00  0.00     0.000 A 
ATOM      9  C   UNL d   1      50.425  33.773  52.123  0.00  0.00     0.001 A 
ATOM     10  C   UNL d   1      50.068  34.316  52.617  0.00  0.00     0.000 A 
ENDROOT
BRANCH   1  11
ATOM     11  N   UNL d   1      53.813  33.528  53.394  0.00  0.00    -0.201 NA
ATOM     12  C   UNL d   1      54.071  32.738  53.416  0.00  0.00     0.286 C 
ATOM     13  O   UNL d   1      54.864  32.578  53.576  0.00  0.00    -0.265 OA
BRANCH  12  14
ATOM     14  C   UNL d   1      53.544  32.121  53.281  0.00  0.00     0.100 C 
BRANCH  14  15
ATOM     15  S   UNL d   1      53.826  31.376  53.056  0.00  0.00    -0.054 SA
BRANCH  15  16
ATOM     16  C   UNL d   1      53.472  30.691  53.347  0.00  0.00     0.164 A 
ATOM     17  S   UNL d   1      53.649  30.214  53.998  0.00  0.00    -0.039 SA
ATOM     18  C   UNL d   1      53.094  29.592  54.014  0.00  0.00     0.134 A 
ATOM     19  C   UNL d   1      53.063  28.984  54.573  0.00  0.00     0.030 C 
ATOM     20  N   UNL d   1      52.583  29.693  53.375  0.00  0.00    -0.140 NA
ATOM     21  N   UNL d   1      52.811  30.368  52.960  0.00  0.00    -0.134 NA
ENDBRANCH  15  16
ENDBRANCH  14  15
ENDBRANCH  12  14
ENDBRANCH   1  11
BRANCH   2  22
ATOM     22  C   UNL d   1      52.760  34.681  54.306  0.00  0.00     0.302 C 
ATOM     23  O   UNL d   1      52.690  34.373  55.074  0.00  0.00    -0.259 OA
BRANCH  22  24
ATOM     24  O   UNL d   1      53.055  35.450  54.195  0.00  0.00    -0.271 OA
BRANCH  24  25
ATOM     25  C   UNL d   1      53.280  35.904  54.845  0.00  0.00     0.126 C 
ATOM     26  C   UNL d   1      53.436  36.709  54.760  0.00  0.00     0.029 C 
ENDBRANCH  24  25
ENDBRANCH  22  24
ENDBRANCH   2  22
TORSDOF 7
ENDMDL
MODEL 4
REMARK VINA RESULT:      -5.6      2.644      4.666
REMARK  7 active torsions:
REMARK  status: ('A' for Active; 'I' for Inactive)
REMARK    1  A    between atoms: N_10  and  C_1 
REMARK    2  A    between atoms: C_11  and  C_2 
REMARK    3  A    between atoms: C_7  and  S_14 
REMARK       I    between atoms: C_13  and  N_10 
REMARK    4  A    between atoms: O_18  and  C_11 
REMARK    5  A    between atoms: C_17  and  C_13 
REMARK    6  A    between atoms: S_14  and  C_17 
REMARK    7  A    between atoms: C_22  and  O_18 
ROOT
ATOM      1  C   UNL d   1      52.178  34.008  52.744  0.00  0.00     0.119 A 
ATOM      2  C   UNL d   1      52.663  33.466  53.136  0.00  0.00     0.088 A 
ATOM      3  S   UNL d   1      52.164  34.699  53.165  0.00  0.00    -0.068 SA
ATOM      4  C   UNL d   1      52.953  33.842  53.820  0.00  0.00     0.013 A 
ATOM      5  C   UNL d   1      52.645  34.608  53.840  0.00  0.00     0.031 A 
ATOM      6  C   UNL d   1      53.465  33.472  54.364  0.00  0.00     0.001 A 
ATOM      7  C   UNL d   1      52.768  35.198  54.405  0.00  0.00     0.006 A 
ATOM      8  C   UNL d   1      53.785  33.788  55.055  0.00  0.00     0.000 A 
ATOM      9  C   UNL d   1      53.234  35.159  55.091  0.00  0.00     0.001 A 
ATOM     10  C   UNL d   1      53.680  34.536  55.373  0.00  0.00     0.000 A 
ENDROOT
BRANCH   1  11
ATOM     11  N   UNL d   1      51.769  33.873  52.033  0.00  0.00    -0.201 NA
ATOM     12  C   UNL d   1      50.973  34.102  51.961  0.00  0.00     0.286 C 
ATOM     13  O   UNL d   1      50.577  33.963  51.252  0.00  0.00    -0.265 OA
BRANCH  12  14
ATOM     14  C   UNL d   1      50.583  34.463  52.589  0.00  0.00     0.100 C 
BRANCH  14  15
ATOM     15  S   UNL d   1      49.770  34.354  52.691  0.00  0.00    -0.054 SA
BRANCH  15  16
ATOM     16  C   UNL d   1      49.287  34.988  52.904  0.00  0.00     0.164 A 
ATOM     17  S   UNL d   1      48.663  35.361  52.511  0.00  0.00    -0.039 SA
ATOM     18  C   UNL d   1      48.384  35.973  53.004  0.00  0.00     0.134 A 
ATOM     19  C   UNL d   1      47.763  36.490  52.830  0.00  0.00     0.030 C 
ATOM     20  N   UNL d   1      48.838  35.969  53.692  0.00  0.00    -0.140 NA
ATOM     21  N   UNL d   1      49.395  35.365  53.637  0.00  0.00    -0.134 NA
ENDBRANCH  15  16
ENDBRANCH  14  15
ENDBRANCH  12  14
ENDBRANCH   1  11
BRANCH   2  22
ATOM     22  C   UNL d   1      52.832  32.694  52.900  0.00  0.00     0.302 C 
ATOM     23  O   UNL d   1      53.450  32.545  52.366  0.00  0.00    -0.259 OA
BRANCH  22  24
ATOM     24  O   UNL d   1      52.381  32.062  53.196  0.00  0.00    -0.271 OA
BRANCH  24  25
ATOM     25  C   UNL d   1      52.554  31.289  52.969  0.00  0.00     0.126 C 
ATOM     26  C   UNL d   1      52.175  30.652  53.330  0.00  0.00     0.029 C 
ENDBRANCH  24  25
ENDBRANCH  22  24
ENDBRANCH   2  22
TORSDOF 7
ENDMDL
