MODEL 1
REMARK VINA RESULT:      -3.1      0.000      0.000
REMARK  3 active torsions:
REMARK  status: ('A' for Active; 'I' for Inactive)
REMARK    1  A    between atoms: C_10  and  C_3 
REMARK    2  A    between atoms: C_13  and  C_7 
REMARK    3  A    between atoms: C_12  and  C_13 
ROOT
ATOM      1  C   UNL d   1      59.047  -0.753  29.394  0.00  0.00     0.171 A 
ATOM      2  N   UNL d   1      59.867  -0.699  29.332  0.00  0.00    -0.212 N 
ATOM      3  C   UNL d   1      58.759  -0.008  29.616  0.00  0.00     0.121 A 
ATOM      4  N   UNL d   1      58.667  -1.465  29.243  0.00  0.00    -0.227 NA
ATOM      5  N   UNL d   1      60.091   0.081  29.515  0.00  0.00    -0.162 NA
ATOM      6  C   UNL d   1      60.311  -1.356  29.119  0.00  0.00     0.086 A 
ATOM      7  C   UNL d   1      59.931  -2.072  28.967  0.00  0.00     0.035 A 
ATOM      8  C   UNL d   1      59.111  -2.126  29.029  0.00  0.00     0.085 A 
ATOM      9  C   UNL d   1      59.400   0.507  29.691  0.00  0.00     0.130 A 
ATOM     10  C   UNL d   1      61.132  -1.301  29.057  0.00  0.00     0.021 C 
ATOM     11  C   UNL d   1      58.731  -2.845  28.876  0.00  0.00     0.021 C 
ENDROOT
BRANCH   3  12
ATOM     12  C   UNL d   1      57.967   0.185  29.740  0.00  0.00     0.215 C 
ATOM     13  O   UNL d   1      57.522   0.531  29.132  0.00  0.00    -0.644 OA
ATOM     14  O   UNL d   1      57.608   0.035  30.471  0.00  0.00    -0.644 OA
ENDBRANCH   3  12
BRANCH   7  15
ATOM     15  C   UNL d   1      60.374  -2.733  28.753  0.00  0.00     0.003 C 
BRANCH  15  16
ATOM     16  C   UNL d   1      60.600  -3.278  29.329  0.00  0.00     0.000 C 
ATOM     17  C   UNL d   1      61.066  -3.927  29.119  0.00  0.00     0.000 C 
ENDBRANCH  15  16
ENDBRANCH   7  15
TORSDOF 3
ENDMDL
MODEL 2
REMARK VINA RESULT:      -3.0      1.941      2.693
REMARK  3 active torsions:
REMARK  status: ('A' for Active; 'I' for Inactive)
REMARK    1  A    between atoms: C_10  and  C_3 
REMARK    2  A    between atoms: C_13  and  C_7 
REMARK    3  A    between atoms: C_12  and  C_13 
ROOT
ATOM      1  C   UNL d   1      57.475  -0.659  30.977  0.00  0.00     0.171 A 
ATOM      2  N   UNL d   1      57.742   0.031  30.614  0.00  0.00    -0.212 N 
ATOM      3  C   UNL d   1      56.993  -0.440  31.616  0.00  0.00     0.121 A 
ATOM      4  N   UNL d   1      57.699  -1.394  30.686  0.00  0.00    -0.227 NA
ATOM      5  N   UNL d   1      57.427   0.681  31.026  0.00  0.00    -0.162 NA
ATOM      6  C   UNL d   1      58.234  -0.011  29.958  0.00  0.00     0.086 A 
ATOM      7  C   UNL d   1      58.461  -0.747  29.665  0.00  0.00     0.035 A 
ATOM      8  C   UNL d   1      58.193  -1.437  30.028  0.00  0.00     0.085 A 
ATOM      9  C   UNL d   1      56.963   0.384  31.647  0.00  0.00     0.130 A 
ATOM     10  C   UNL d   1      58.502   0.681  29.594  0.00  0.00     0.021 C 
ATOM     11  C   UNL d   1      58.421  -2.175  29.732  0.00  0.00     0.021 C 
ENDROOT
BRANCH   3  12
ATOM     12  C   UNL d   1      56.610  -0.958  32.130  0.00  0.00     0.215 C 
ATOM     13  O   UNL d   1      56.859  -1.022  32.918  0.00  0.00    -0.644 OA
ATOM     14  O   UNL d   1      55.976  -1.420  31.866  0.00  0.00    -0.644 OA
ENDBRANCH   3  12
BRANCH   7  15
ATOM     15  C   UNL d   1      58.955  -0.791  29.007  0.00  0.00     0.003 C 
BRANCH  15  16
ATOM     16  C   UNL d   1      59.773  -0.799  29.110  0.00  0.00     0.000 C 
ATOM     17  C   UNL d   1      60.269  -0.893  28.455  0.00  0.00     0.000 C 
ENDBRANCH  15  16
ENDBRANCH   7  15
TORSDOF 3
ENDMDL
MODEL 3
REMARK VINA RESULT:      -2.8      3.406      5.065
REMARK  3 active torsions:
REMARK  status: ('A' for Active; 'I' for Inactive)
REMARK    1  A    between atoms: C_10  and  C_3 
REMARK    2  A    between atoms: C_13  and  C_7 
REMARK    3  A    between atoms: C_12  and  C_13 
ROOT
ATOM      1  C   UNL d   1      57.372  -0.274  31.814  0.00  0.00     0.171 A 
ATOM      2  N   UNL d   1      56.786  -0.853  31.844  0.00  0.00    -0.212 N 
ATOM      3  C   UNL d   1      57.758  -0.341  31.083  0.00  0.00     0.121 A 
ATOM      4  N   UNL d   1      57.481   0.237  32.447  0.00  0.00    -0.227 NA
ATOM      5  N   UNL d   1      56.806  -1.282  31.132  0.00  0.00    -0.162 NA
ATOM      6  C   UNL d   1      56.307  -0.923  32.508  0.00  0.00     0.086 A 
ATOM      7  C   UNL d   1      56.416  -0.411  33.144  0.00  0.00     0.035 A 
ATOM      8  C   UNL d   1      57.002   0.168  33.114  0.00  0.00     0.085 A 
ATOM      9  C   UNL d   1      57.411  -0.961  30.662  0.00  0.00     0.130 A 
ATOM     10  C   UNL d   1      55.721  -1.504  32.538  0.00  0.00     0.021 C 
ATOM     11  C   UNL d   1      57.109   0.682  33.753  0.00  0.00     0.021 C 
ENDROOT
BRANCH   3  12
ATOM     12  C   UNL d   1      58.381   0.132  30.822  0.00  0.00     0.215 C 
ATOM     13  O   UNL d   1      59.129   0.065  31.175  0.00  0.00    -0.644 OA
ATOM     14  O   UNL d   1      58.267   0.676  30.209  0.00  0.00    -0.644 OA
ENDBRANCH   3  12
BRANCH   7  15
ATOM     15  C   UNL d   1      55.936  -0.480  33.811  0.00  0.00     0.003 C 
BRANCH  15  16
ATOM     16  C   UNL d   1      55.385   0.109  33.981  0.00  0.00     0.000 C 
ATOM     17  C   UNL d   1      54.921   0.053  34.662  0.00  0.00     0.000 C 
ENDBRANCH  15  16
ENDBRANCH   7  15
TORSDOF 3
ENDMDL
MODEL 4
REMARK VINA RESULT:      -2.3      3.052      4.197
REMARK  3 active torsions:
REMARK  status: ('A' for Active; 'I' for Inactive)
REMARK    1  A    between atoms: C_10  and  C_3 
REMARK    2  A    between atoms: C_13  and  C_7 
REMARK    3  A    between atoms: C_12  and  C_13 
ROOT
ATOM      1  C   UNL d   1      56.823   0.292  32.443  0.00  0.00     0.171 A 
ATOM      2  N   UNL d   1      57.603   0.421  32.675  0.00  0.00    -0.212 N 
ATOM      3  C   UNL d   1      56.370   0.180  33.129  0.00  0.00     0.121 A 
ATOM      4  N   UNL d   1      56.622   0.292  31.647  0.00  0.00    -0.227 NA
ATOM      5  N   UNL d   1      57.637   0.390  33.506  0.00  0.00    -0.162 NA
ATOM      6  C   UNL d   1      58.186   0.551  32.112  0.00  0.00     0.086 A 
ATOM      7  C   UNL d   1      57.987   0.551  31.312  0.00  0.00     0.035 A 
ATOM      8  C   UNL d   1      57.207   0.422  31.080  0.00  0.00     0.085 A 
ATOM      9  C   UNL d   1      56.869   0.240  33.784  0.00  0.00     0.130 A 
ATOM     10  C   UNL d   1      58.968   0.681  32.344  0.00  0.00     0.021 C 
ATOM     11  C   UNL d   1      57.008   0.422  30.278  0.00  0.00     0.021 C 
ENDROOT
BRANCH   3  12
ATOM     12  C   UNL d   1      55.558   0.033  33.151  0.00  0.00     0.215 C 
ATOM     13  O   UNL d   1      55.272  -0.737  33.047  0.00  0.00    -0.644 OA
ATOM     14  O   UNL d   1      55.024   0.653  33.276  0.00  0.00    -0.644 OA
ENDBRANCH   3  12
BRANCH   7  15
ATOM     15  C   UNL d   1      58.571   0.681  30.745  0.00  0.00     0.003 C 
BRANCH  15  16
ATOM     16  C   UNL d   1      58.801   0.066  30.247  0.00  0.00     0.000 C 
ATOM     17  C   UNL d   1      59.544   0.087  29.885  0.00  0.00     0.000 C 
ENDBRANCH  15  16
ENDBRANCH   7  15
TORSDOF 3
ENDMDL
MODEL 5
REMARK VINA RESULT:      -2.3      1.881      3.432
REMARK  3 active torsions:
REMARK  status: ('A' for Active; 'I' for Inactive)
REMARK    1  A    between atoms: C_10  and  C_3 
REMARK    2  A    between atoms: C_13  and  C_7 
REMARK    3  A    between atoms: C_12  and  C_13 
ROOT
ATOM      1  C   UNL d   1      58.453  -1.485  29.653  0.00  0.00     0.171 A 
ATOM      2  N   UNL d   1      58.592  -0.681  29.539  0.00  0.00    -0.212 N 
ATOM      3  C   UNL d   1      58.904  -1.902  29.095  0.00  0.00     0.121 A 
ATOM      4  N   UNL d   1      57.939  -1.737  30.241  0.00  0.00    -0.227 NA
ATOM      5  N   UNL d   1      59.130  -0.595  28.911  0.00  0.00    -0.162 NA
ATOM      6  C   UNL d   1      58.218  -0.125  30.014  0.00  0.00     0.086 A 
ATOM      7  C   UNL d   1      57.702  -0.376  30.606  0.00  0.00     0.035 A 
ATOM      8  C   UNL d   1      57.563  -1.181  30.719  0.00  0.00     0.085 A 
ATOM      9  C   UNL d   1      59.321  -1.356  28.638  0.00  0.00     0.130 A 
ATOM     10  C   UNL d   1      58.357   0.681  29.900  0.00  0.00     0.021 C 
ATOM     11  C   UNL d   1      57.045  -1.431  31.313  0.00  0.00     0.021 C 
ENDROOT
BRANCH   3  12
ATOM     12  C   UNL d   1      58.930  -2.722  29.014  0.00  0.00     0.215 C 
ATOM     13  O   UNL d   1      58.346  -3.115  28.576  0.00  0.00    -0.644 OA
ATOM     14  O   UNL d   1      59.538  -3.160  29.367  0.00  0.00    -0.644 OA
ENDBRANCH   3  12
BRANCH   7  15
ATOM     15  C   UNL d   1      57.325   0.180  31.083  0.00  0.00     0.003 C 
BRANCH  15  16
ATOM     16  C   UNL d   1      57.445   0.167  31.899  0.00  0.00     0.000 C 
ATOM     17  C   UNL d   1      57.020   0.682  32.385  0.00  0.00     0.000 C 
ENDBRANCH  15  16
ENDBRANCH   7  15
TORSDOF 3
ENDMDL
MODEL 6
REMARK VINA RESULT:      -1.9      8.877      9.507
REMARK  3 active torsions:
REMARK  status: ('A' for Active; 'I' for Inactive)
REMARK    1  A    between atoms: C_10  and  C_3 
REMARK    2  A    between atoms: C_13  and  C_7 
REMARK    3  A    between atoms: C_12  and  C_13 
ROOT
ATOM      1  C   UNL d   1      59.980  -8.930  34.534  0.00  0.00     0.171 A 
ATOM      2  N   UNL d   1      59.216  -9.226  34.443  0.00  0.00    -0.212 N 
ATOM      3  C   UNL d   1      60.062  -8.675  35.319  0.00  0.00     0.121 A 
ATOM      4  N   UNL d   1      60.502  -8.929  33.900  0.00  0.00    -0.227 NA
ATOM      5  N   UNL d   1      58.821  -9.155  35.171  0.00  0.00    -0.162 NA
ATOM      6  C   UNL d   1      58.971  -9.522  33.717  0.00  0.00     0.086 A 
ATOM      7  C   UNL d   1      59.493  -9.521  33.080  0.00  0.00     0.035 A 
ATOM      8  C   UNL d   1      60.257  -9.226  33.171  0.00  0.00     0.085 A 
ATOM      9  C   UNL d   1      59.350  -8.813  35.712  0.00  0.00     0.130 A 
ATOM     10  C   UNL d   1      58.205  -9.818  33.626  0.00  0.00     0.021 C 
ATOM     11  C   UNL d   1      60.780  -9.226  32.530  0.00  0.00     0.021 C 
ENDROOT
BRANCH   3  12
ATOM     12  C   UNL d   1      60.740  -8.341  35.648  0.00  0.00     0.215 C 
ATOM     13  O   UNL d   1      61.129  -8.721  36.274  0.00  0.00    -0.644 OA
ATOM     14  O   UNL d   1      61.038  -7.625  35.358  0.00  0.00    -0.644 OA
ENDBRANCH   3  12
BRANCH   7  15
ATOM     15  C   UNL d   1      59.248  -9.818  32.350  0.00  0.00     0.003 C 
BRANCH  15  16
ATOM     16  C   UNL d   1      58.563  -9.523  31.998  0.00  0.00     0.000 C 
ATOM     17  C   UNL d   1      58.357  -9.766  31.236  0.00  0.00     0.000 C 
ENDBRANCH  15  16
ENDBRANCH   7  15
TORSDOF 3
ENDMDL
MODEL 7
REMARK VINA RESULT:      -1.7      2.164      3.679
REMARK  3 active torsions:
REMARK  status: ('A' for Active; 'I' for Inactive)
REMARK    1  A    between atoms: C_10  and  C_3 
REMARK    2  A    between atoms: C_13  and  C_7 
REMARK    3  A    between atoms: C_12  and  C_13 
ROOT
ATOM      1  C   UNL d   1      59.981  -2.793  29.008  0.00  0.00     0.171 A 
ATOM      2  N   UNL d   1      59.185  -2.618  28.891  0.00  0.00    -0.212 N 
ATOM      3  C   UNL d   1      60.064  -3.619  29.002  0.00  0.00     0.121 A 
ATOM      4  N   UNL d   1      60.528  -2.188  29.105  0.00  0.00    -0.227 NA
ATOM      5  N   UNL d   1      58.770  -3.335  28.811  0.00  0.00    -0.162 NA
ATOM      6  C   UNL d   1      58.931  -1.838  28.870  0.00  0.00     0.086 A 
ATOM      7  C   UNL d   1      59.478  -1.229  28.967  0.00  0.00     0.035 A 
ATOM      8  C   UNL d   1      60.274  -1.403  29.084  0.00  0.00     0.085 A 
ATOM      9  C   UNL d   1      59.320  -3.953  28.881  0.00  0.00     0.130 A 
ATOM     10  C   UNL d   1      58.132  -1.663  28.752  0.00  0.00     0.021 C 
ATOM     11  C   UNL d   1      60.822  -0.792  29.181  0.00  0.00     0.021 C 
ENDROOT
BRANCH   3  12
ATOM     12  C   UNL d   1      60.771  -4.032  29.100  0.00  0.00     0.215 C 
ATOM     13  O   UNL d   1      61.129  -4.072  29.846  0.00  0.00    -0.644 OA
ATOM     14  O   UNL d   1      61.129  -4.410  28.456  0.00  0.00    -0.644 OA
ENDBRANCH   3  12
BRANCH   7  15
ATOM     15  C   UNL d   1      59.224  -0.445  28.946  0.00  0.00     0.003 C 
BRANCH  15  16
ATOM     16  C   UNL d   1      58.885  -0.107  29.617  0.00  0.00     0.000 C 
ATOM     17  C   UNL d   1      58.576   0.658  29.580  0.00  0.00     0.000 C 
ENDBRANCH  15  16
ENDBRANCH   7  15
TORSDOF 3
ENDMDL
MODEL 8
REMARK VINA RESULT:      -1.6      2.292      3.777
REMARK  3 active torsions:
REMARK  status: ('A' for Active; 'I' for Inactive)
REMARK    1  A    between atoms: C_10  and  C_3 
REMARK    2  A    between atoms: C_13  and  C_7 
REMARK    3  A    between atoms: C_12  and  C_13 
ROOT
ATOM      1  C   UNL d   1      59.066   0.250  29.942  0.00  0.00     0.171 A 
ATOM      2  N   UNL d   1      58.266   0.263  29.742  0.00  0.00    -0.212 N 
ATOM      3  C   UNL d   1      59.497   0.093  29.251  0.00  0.00     0.121 A 
ATOM      4  N   UNL d   1      59.301   0.381  30.717  0.00  0.00    -0.227 NA
ATOM      5  N   UNL d   1      58.198   0.114  28.926  0.00  0.00    -0.162 NA
ATOM      6  C   UNL d   1      57.698   0.406  30.317  0.00  0.00     0.086 A 
ATOM      7  C   UNL d   1      57.933   0.538  31.097  0.00  0.00     0.035 A 
ATOM      8  C   UNL d   1      58.732   0.525  31.296  0.00  0.00     0.085 A 
ATOM      9  C   UNL d   1      58.966   0.009  28.625  0.00  0.00     0.130 A 
ATOM     10  C   UNL d   1      56.897   0.419  30.117  0.00  0.00     0.021 C 
ATOM     11  C   UNL d   1      58.966   0.657  32.079  0.00  0.00     0.021 C 
ENDROOT
BRANCH   3  12
ATOM     12  C   UNL d   1      60.318   0.032  29.200  0.00  0.00     0.215 C 
ATOM     13  O   UNL d   1      60.695  -0.682  29.388  0.00  0.00    -0.644 OA
ATOM     14  O   UNL d   1      60.773   0.682  28.960  0.00  0.00    -0.644 OA
ENDBRANCH   3  12
BRANCH   7  15
ATOM     15  C   UNL d   1      57.364   0.682  31.676  0.00  0.00     0.003 C 
BRANCH  15  16
ATOM     16  C   UNL d   1      56.990   0.049  32.048  0.00  0.00     0.000 C 
ATOM     17  C   UNL d   1      56.422   0.192  32.631  0.00  0.00     0.000 C 
ENDBRANCH  15  16
ENDBRANCH   7  15
TORSDOF 3
ENDMDL
MODEL 9
REMARK VINA RESULT:      -1.6      3.860      5.126
REMARK  3 active torsions:
REMARK  status: ('A' for Active; 'I' for Inactive)
REMARK    1  A    between atoms: C_10  and  C_3 
REMARK    2  A    between atoms: C_13  and  C_7 
REMARK    3  A    between atoms: C_12  and  C_13 
ROOT
ATOM      1  C   UNL d   1      56.073  -0.221  33.235  0.00  0.00     0.171 A 
ATOM      2  N   UNL d   1      55.950  -0.869  32.741  0.00  0.00    -0.212 N 
ATOM      3  C   UNL d   1      55.486  -0.234  33.821  0.00  0.00     0.121 A 
ATOM      4  N   UNL d   1      56.695   0.296  33.093  0.00  0.00    -0.227 NA
ATOM      5  N   UNL d   1      55.287  -1.287  33.018  0.00  0.00    -0.162 NA
ATOM      6  C   UNL d   1      56.449  -1.003  32.103  0.00  0.00     0.086 A 
ATOM      7  C   UNL d   1      57.075  -0.485  31.959  0.00  0.00     0.035 A 
ATOM      8  C   UNL d   1      57.197   0.163  32.453  0.00  0.00     0.085 A 
ATOM      9  C   UNL d   1      55.002  -0.889  33.690  0.00  0.00     0.130 A 
ATOM     10  C   UNL d   1      56.327  -1.653  31.607  0.00  0.00     0.021 C 
ATOM     11  C   UNL d   1      57.825   0.681  32.308  0.00  0.00     0.021 C 
ENDROOT
BRANCH   3  12
ATOM     12  C   UNL d   1      55.403   0.315  34.431  0.00  0.00     0.215 C 
ATOM     13  O   UNL d   1      54.671   0.681  34.564  0.00  0.00    -0.644 OA
ATOM     14  O   UNL d   1      56.047   0.505  34.915  0.00  0.00    -0.644 OA
ENDBRANCH   3  12
BRANCH   7  15
ATOM     15  C   UNL d   1      57.577  -0.619  31.319  0.00  0.00     0.003 C 
BRANCH  15  16
ATOM     16  C   UNL d   1      57.647  -0.047  30.729  0.00  0.00     0.000 C 
ATOM     17  C   UNL d   1      58.191  -0.154  30.116  0.00  0.00     0.000 C 
ENDBRANCH  15  16
ENDBRANCH   7  15
TORSDOF 3
ENDMDL
