MODEL 1
REMARK VINA RESULT:       9.9      0.000      0.000
REMARK  3 active torsions:
REMARK  status: ('A' for Active; 'I' for Inactive)
REMARK    1  A    between atoms: C_4  and  C_1 
REMARK    2  A    between atoms: C_8  and  C_3 
REMARK    3  A    between atoms: O_20  and  C_16 
ROOT
ATOM      1  C   UNL d   1     -41.673-123.109 -51.868  0.00  0.00     0.107 A 
ATOM      2  N   UNL d   1     -41.700-123.817 -52.291  0.00  0.00    -0.148 NA
ATOM      3  C   UNL d   1     -41.481-122.511 -52.394  0.00  0.00     0.039 A 
ATOM      4  N   UNL d   1     -41.522-123.654 -53.086  0.00  0.00    -0.148 NA
ATOM      5  C   UNL d   1     -41.383-122.848 -53.167  0.00  0.00     0.104 A 
ATOM      6  C   UNL d   1     -41.188-122.456 -53.866  0.00  0.00     0.023 C 
ENDROOT
BRANCH   1   7
ATOM      7  C   UNL d   1     -41.821-123.059 -51.061  0.00  0.00     0.059 A 
ATOM      8  C   UNL d   1     -42.580-122.905 -50.791  0.00  0.00     0.200 A 
ATOM      9  C   UNL d   1     -42.730-122.854 -49.985  0.00  0.00     0.084 A 
ATOM     10  O   UNL d   1     -43.220-122.795 -51.346  0.00  0.00    -0.286 OA
ATOM     11  C   UNL d   1     -42.097-122.963 -49.445  0.00  0.00     0.199 A 
ATOM     12  C   UNL d   1     -41.341-123.116 -49.714  0.00  0.00     0.042 A 
ATOM     13  O   UNL d   1     -42.232-122.914 -48.604  0.00  0.00    -0.286 OA
ATOM     14  C   UNL d   1     -41.211-123.163 -50.534  0.00  0.00     0.008 A 
ENDBRANCH   1   7
BRANCH   3  15
ATOM     15  C   UNL d   1     -41.412-121.707 -52.116  0.00  0.00     0.003 A 
ATOM     16  C   UNL d   1     -41.187-121.547 -51.342  0.00  0.00     0.002 A 
ATOM     17  C   UNL d   1     -41.124-120.747 -51.084  0.00  0.00     0.024 A 
ATOM     18  C   UNL d   1     -41.289-120.145 -51.613  0.00  0.00     0.094 A 
ATOM     19  C   UNL d   1     -41.519-120.292 -52.402  0.00  0.00     0.024 A 
ATOM     20  C   UNL d   1     -41.581-121.091 -52.659  0.00  0.00     0.002 A 
BRANCH  18  21
ATOM     21  O   UNL d   1     -41.226-119.345 -51.355  0.00  0.00    -0.328 OA
ATOM     22  C   UNL d   1     -41.157-118.742 -51.932  0.00  0.00     0.181 C 
ENDBRANCH  18  21
ENDBRANCH   3  15
TORSDOF 3
ENDMDL
MODEL 2
REMARK VINA RESULT:      10.5      1.916      3.819
REMARK  3 active torsions:
REMARK  status: ('A' for Active; 'I' for Inactive)
REMARK    1  A    between atoms: C_4  and  C_1 
REMARK    2  A    between atoms: C_8  and  C_3 
REMARK    3  A    between atoms: O_20  and  C_16 
ROOT
ATOM      1  C   UNL d   1     -41.819-121.116 -53.829  0.00  0.00     0.107 A 
ATOM      2  N   UNL d   1     -41.806-120.352 -54.141  0.00  0.00    -0.148 NA
ATOM      3  C   UNL d   1     -41.622-121.066 -53.036  0.00  0.00     0.039 A 
ATOM      4  N   UNL d   1     -41.599-119.824 -53.533  0.00  0.00    -0.148 NA
ATOM      5  C   UNL d   1     -41.481-120.252 -52.841  0.00  0.00     0.104 A 
ATOM      6  C   UNL d   1     -41.268-119.940 -52.108  0.00  0.00     0.023 C 
ENDROOT
BRANCH   1   7
ATOM      7  C   UNL d   1     -42.004-121.782 -54.275  0.00  0.00     0.059 A 
ATOM      8  C   UNL d   1     -42.775-121.912 -54.520  0.00  0.00     0.200 A 
ATOM      9  C   UNL d   1     -42.962-122.576 -54.965  0.00  0.00     0.084 A 
ATOM     10  O   UNL d   1     -43.391-121.357 -54.315  0.00  0.00    -0.286 OA
ATOM     11  C   UNL d   1     -42.352-123.118 -55.163  0.00  0.00     0.199 A 
ATOM     12  C   UNL d   1     -41.583-122.988 -54.919  0.00  0.00     0.042 A 
ATOM     13  O   UNL d   1     -42.525-123.815 -55.625  0.00  0.00    -0.286 OA
ATOM     14  C   UNL d   1     -41.416-122.309 -54.469  0.00  0.00     0.008 A 
ENDBRANCH   1   7
BRANCH   3  15
ATOM     15  C   UNL d   1     -41.590-121.774 -52.562  0.00  0.00     0.003 A 
ATOM     16  C   UNL d   1     -41.143-122.422 -52.800  0.00  0.00     0.002 A 
ATOM     17  C   UNL d   1     -41.123-123.112 -52.319  0.00  0.00     0.024 A 
ATOM     18  C   UNL d   1     -41.549-123.124 -51.621  0.00  0.00     0.094 A 
ATOM     19  C   UNL d   1     -42.007-122.474 -51.365  0.00  0.00     0.024 A 
ATOM     20  C   UNL d   1     -42.028-121.784 -51.846  0.00  0.00     0.002 A 
BRANCH  18  21
ATOM     21  O   UNL d   1     -41.529-123.816 -51.140  0.00  0.00    -0.328 OA
ATOM     22  C   UNL d   1     -41.725-123.746 -50.330  0.00  0.00     0.181 C 
ENDBRANCH  18  21
ENDBRANCH   3  15
TORSDOF 3
ENDMDL
MODEL 3
REMARK VINA RESULT:      11.5      1.386      2.866
REMARK  3 active torsions:
REMARK  status: ('A' for Active; 'I' for Inactive)
REMARK    1  A    between atoms: C_4  and  C_1 
REMARK    2  A    between atoms: C_8  and  C_3 
REMARK    3  A    between atoms: O_20  and  C_16 
ROOT
ATOM      1  C   UNL d   1     -42.414-122.968 -52.098  0.00  0.00     0.107 A 
ATOM      2  N   UNL d   1     -42.751-123.695 -51.901  0.00  0.00    -0.148 NA
ATOM      3  C   UNL d   1     -42.414-122.502 -51.425  0.00  0.00     0.039 A 
ATOM      4  N   UNL d   1     -42.962-123.677 -51.097  0.00  0.00    -0.148 NA
ATOM      5  C   UNL d   1     -42.759-122.943 -50.787  0.00  0.00     0.104 A 
ATOM      6  C   UNL d   1     -42.874-122.697 -50.008  0.00  0.00     0.023 C 
ENDROOT
BRANCH   1   7
ATOM      7  C   UNL d   1     -42.139-122.787 -52.851  0.00  0.00     0.059 A 
ATOM      8  C   UNL d   1     -41.505-123.199 -53.167  0.00  0.00     0.200 A 
ATOM      9  C   UNL d   1     -41.228-123.020 -53.919  0.00  0.00     0.084 A 
ATOM     10  O   UNL d   1     -41.125-123.817 -52.716  0.00  0.00    -0.286 OA
ATOM     11  C   UNL d   1     -41.604-122.412 -54.358  0.00  0.00     0.199 A 
ATOM     12  C   UNL d   1     -42.237-122.001 -54.043  0.00  0.00     0.042 A 
ATOM     13  O   UNL d   1     -41.333-122.210 -55.141  0.00  0.00    -0.286 OA
ATOM     14  C   UNL d   1     -42.501-122.198 -53.279  0.00  0.00     0.008 A 
ENDBRANCH   1   7
BRANCH   3  15
ATOM     15  C   UNL d   1     -42.096-121.711 -51.456  0.00  0.00     0.003 A 
ATOM     16  C   UNL d   1     -42.406-121.152 -51.973  0.00  0.00     0.002 A 
ATOM     17  C   UNL d   1     -42.079-120.376 -51.991  0.00  0.00     0.024 A 
ATOM     18  C   UNL d   1     -41.458-120.194 -51.491  0.00  0.00     0.094 A 
ATOM     19  C   UNL d   1     -41.132-120.750 -50.960  0.00  0.00     0.024 A 
ATOM     20  C   UNL d   1     -41.458-121.526 -50.943  0.00  0.00     0.002 A 
BRANCH  18  21
ATOM     21  O   UNL d   1     -41.131-119.417 -51.509  0.00  0.00    -0.328 OA
ATOM     22  C   UNL d   1     -41.187-118.975 -52.217  0.00  0.00     0.181 C 
ENDBRANCH  18  21
ENDBRANCH   3  15
TORSDOF 3
ENDMDL
MODEL 4
REMARK VINA RESULT:      11.5      0.937      2.992
REMARK  3 active torsions:
REMARK  status: ('A' for Active; 'I' for Inactive)
REMARK    1  A    between atoms: C_4  and  C_1 
REMARK    2  A    between atoms: C_8  and  C_3 
REMARK    3  A    between atoms: O_20  and  C_16 
ROOT
ATOM      1  C   UNL d   1     -41.470-121.769 -52.908  0.00  0.00     0.107 A 
ATOM      2  N   UNL d   1     -41.381-121.724 -53.727  0.00  0.00    -0.148 NA
ATOM      3  C   UNL d   1     -41.641-122.547 -52.717  0.00  0.00     0.039 A 
ATOM      4  N   UNL d   1     -41.498-122.483 -54.045  0.00  0.00    -0.148 NA
ATOM      5  C   UNL d   1     -41.661-123.005 -53.432  0.00  0.00     0.104 A 
ATOM      6  C   UNL d   1     -41.812-123.812 -53.508  0.00  0.00     0.023 C 
ENDROOT
BRANCH   1   7
ATOM      7  C   UNL d   1     -41.391-121.120 -52.409  0.00  0.00     0.059 A 
ATOM      8  C   UNL d   1     -41.499-120.362 -52.701  0.00  0.00     0.200 A 
ATOM      9  C   UNL d   1     -41.421-119.712 -52.205  0.00  0.00     0.084 A 
ATOM     10  O   UNL d   1     -41.693-120.241 -53.524  0.00  0.00    -0.286 OA
ATOM     11  C   UNL d   1     -41.230-119.837 -51.397  0.00  0.00     0.199 A 
ATOM     12  C   UNL d   1     -41.123-120.593 -51.106  0.00  0.00     0.042 A 
ATOM     13  O   UNL d   1     -41.145-119.176 -50.865  0.00  0.00    -0.286 OA
ATOM     14  C   UNL d   1     -41.206-121.237 -51.626  0.00  0.00     0.008 A 
ENDBRANCH   1   7
BRANCH   3  15
ATOM     15  C   UNL d   1     -41.764-122.767 -51.902  0.00  0.00     0.003 A 
ATOM     16  C   UNL d   1     -41.143-123.047 -51.443  0.00  0.00     0.002 A 
ATOM     17  C   UNL d   1     -41.283-123.260 -50.640  0.00  0.00     0.024 A 
ATOM     18  C   UNL d   1     -42.037-123.182 -50.333  0.00  0.00     0.094 A 
ATOM     19  C   UNL d   1     -42.678-122.898 -50.787  0.00  0.00     0.024 A 
ATOM     20  C   UNL d   1     -42.539-122.686 -51.590  0.00  0.00     0.002 A 
BRANCH  18  21
ATOM     21  O   UNL d   1     -42.177-123.394 -49.529  0.00  0.00    -0.328 OA
ATOM     22  C   UNL d   1     -42.885-123.139 -49.164  0.00  0.00     0.181 C 
ENDBRANCH  18  21
ENDBRANCH   3  15
TORSDOF 3
ENDMDL
MODEL 5
REMARK VINA RESULT:      12.4      1.915      3.845
REMARK  3 active torsions:
REMARK  status: ('A' for Active; 'I' for Inactive)
REMARK    1  A    between atoms: C_4  and  C_1 
REMARK    2  A    between atoms: C_8  and  C_3 
REMARK    3  A    between atoms: O_20  and  C_16 
ROOT
ATOM      1  C   UNL d   1     -43.381-122.162 -50.598  0.00  0.00     0.107 A 
ATOM      2  N   UNL d   1     -43.971-121.691 -50.932  0.00  0.00    -0.148 NA
ATOM      3  C   UNL d   1     -43.476-122.143 -49.785  0.00  0.00     0.039 A 
ATOM      4  N   UNL d   1     -44.435-121.378 -50.317  0.00  0.00    -0.148 NA
ATOM      5  C   UNL d   1     -44.141-121.649 -49.599  0.00  0.00     0.104 A 
ATOM      6  C   UNL d   1     -44.441-121.469 -48.852  0.00  0.00     0.023 C 
ENDROOT
BRANCH   1   7
ATOM      7  C   UNL d   1     -42.817-122.562 -51.043  0.00  0.00     0.059 A 
ATOM      8  C   UNL d   1     -42.255-122.143 -51.466  0.00  0.00     0.200 A 
ATOM      9  C   UNL d   1     -41.691-122.541 -51.911  0.00  0.00     0.084 A 
ATOM     10  O   UNL d   1     -42.250-121.289 -51.448  0.00  0.00    -0.286 OA
ATOM     11  C   UNL d   1     -41.700-123.379 -51.926  0.00  0.00     0.199 A 
ATOM     12  C   UNL d   1     -42.261-123.798 -51.503  0.00  0.00     0.042 A 
ATOM     13  O   UNL d   1     -41.123-123.812 -52.382  0.00  0.00    -0.286 OA
ATOM     14  C   UNL d   1     -42.823-123.375 -51.059  0.00  0.00     0.008 A 
ENDBRANCH   1   7
BRANCH   3  15
ATOM     15  C   UNL d   1     -42.942-122.582 -49.285  0.00  0.00     0.003 A 
ATOM     16  C   UNL d   1     -43.029-123.394 -49.185  0.00  0.00     0.002 A 
ATOM     17  C   UNL d   1     -42.493-123.811 -48.688  0.00  0.00     0.024 A 
ATOM     18  C   UNL d   1     -41.894-123.398 -48.313  0.00  0.00     0.094 A 
ATOM     19  C   UNL d   1     -41.793-122.575 -48.404  0.00  0.00     0.024 A 
ATOM     20  C   UNL d   1     -42.329-122.157 -48.901  0.00  0.00     0.002 A 
BRANCH  18  21
ATOM     21  O   UNL d   1     -41.358-123.817 -47.815  0.00  0.00    -0.328 OA
ATOM     22  C   UNL d   1     -41.125-123.466 -47.092  0.00  0.00     0.181 C 
ENDBRANCH  18  21
ENDBRANCH   3  15
TORSDOF 3
ENDMDL
