MODEL 1
REMARK VINA RESULT:      43.4      0.000      0.000
REMARK  5 active torsions:
REMARK  status: ('A' for Active; 'I' for Inactive)
REMARK       I    between atoms: N_2  and  C_1 
REMARK    1  A    between atoms: C_3  and  C_1 
REMARK    2  A    between atoms: C_5  and  N_2 
REMARK    3  A    between atoms: C_6  and  C_3 
REMARK    4  A    between atoms: C_7  and  C_3 
REMARK    5  A    between atoms: C_9  and  C_5 
ROOT
ATOM      1  C   UNL d   1     -57.905 -99.023 -44.886  0.00  0.00     0.058 C 
ENDROOT
BRANCH   1   2
ATOM      2  C   UNL d   1     -56.930 -99.214 -45.149  0.00  0.00     0.275 C 
ATOM      3  N   UNL d   1     -56.218 -99.504 -45.098  0.00  0.00    -0.231 NA
ATOM      4  O   UNL d   1     -57.134 -98.762 -45.757  0.00  0.00    -0.266 OA
BRANCH   3   5
ATOM      5  C   UNL d   1     -56.008 -99.966 -44.477  0.00  0.00     0.146 C 
ATOM      6  C   UNL d   1     -55.792 -99.329 -44.072  0.00  0.00     0.033 C 
ATOM      7  C   UNL d   1     -56.231-100.603 -44.900  0.00  0.00     0.033 C 
BRANCH   5   8
ATOM      8  C   UNL d   1     -55.802-100.441 -43.865  0.00  0.00     0.229 C 
ATOM      9  O   UNL d   1     -55.227-100.989 -43.976  0.00  0.00    -0.286 OA
ENDBRANCH   5   8
ENDBRANCH   3   5
ENDBRANCH   1   2
BRANCH   1  10
ATOM     10  C   UNL d   1     -58.459 -98.934 -45.471  0.00  0.00     0.005 A 
ATOM     11  C   UNL d   1     -59.244 -98.850 -45.286  0.00  0.00     0.000 A 
ATOM     12  C   UNL d   1     -59.804 -98.760 -45.887  0.00  0.00     0.000 A 
ATOM     13  C   UNL d   1     -59.569 -98.756 -46.678  0.00  0.00     0.000 A 
ATOM     14  C   UNL d   1     -58.762 -98.843 -46.864  0.00  0.00     0.000 A 
ATOM     15  C   UNL d   1     -58.206 -98.932 -46.267  0.00  0.00     0.000 A 
ENDBRANCH   1  10
BRANCH   1  16
ATOM     16  C   UNL d   1     -58.263 -98.936 -44.163  0.00  0.00     0.005 A 
ATOM     17  C   UNL d   1     -59.087 -98.893 -44.103  0.00  0.00     0.000 A 
ATOM     18  C   UNL d   1     -59.455 -98.804 -43.361  0.00  0.00     0.000 A 
ATOM     19  C   UNL d   1     -58.991 -98.756 -42.671  0.00  0.00     0.000 A 
ATOM     20  C   UNL d   1     -58.156 -98.800 -42.734  0.00  0.00     0.000 A 
ATOM     21  C   UNL d   1     -57.803 -98.889 -43.480  0.00  0.00     0.000 A 
ENDBRANCH   1  16
TORSDOF 5
ENDMDL
