MODEL 1
REMARK VINA RESULT:      -9.3      0.000      0.000
REMARK  2 active torsions:
REMARK  status: ('A' for Active; 'I' for Inactive)
REMARK    1  A    between atoms: C_7  and  C_2 
REMARK    2  A    between atoms: C_6  and  N_3 
ROOT
ATOM      1  C   UNL d   1      52.543  33.373  53.563  0.00  0.00     0.085 A 
ATOM      2  C   UNL d   1      52.872  33.742  54.209  0.00  0.00     0.019 A 
ATOM      3  C   UNL d   1      53.660  33.606  54.411  0.00  0.00     0.002 A 
ATOM      4  C   UNL d   1      53.021  32.848  53.100  0.00  0.00     0.019 A 
ATOM      5  C   UNL d   1      54.125  33.094  53.960  0.00  0.00     0.000 A 
ATOM      6  C   UNL d   1      53.812  32.707  53.298  0.00  0.00     0.002 A 
ATOM      7  C   UNL d   1      53.963  33.986  55.060  0.00  0.00     0.000 A 
ATOM      8  C   UNL d   1      54.904  32.951  54.149  0.00  0.00     0.000 A 
ATOM      9  C   UNL d   1      54.738  33.863  55.273  0.00  0.00     0.000 A 
ATOM     10  C   UNL d   1      55.216  33.337  54.810  0.00  0.00     0.000 A 
ENDROOT
BRANCH   1  11
ATOM     11  N   UNL d   1      51.759  33.494  53.342  0.00  0.00    -0.210 N 
ATOM     12  C   UNL d   1      51.413  34.095  52.911  0.00  0.00     0.191 A 
ATOM     13  C   UNL d   1      50.630  33.939  52.859  0.00  0.00     0.118 A 
ATOM     14  N   UNL d   1      51.809  34.739  52.594  0.00  0.00    -0.127 N 
ATOM     15  C   UNL d   1      50.470  33.234  53.258  0.00  0.00     0.129 A 
ATOM     16  N   UNL d   1      51.161  32.969  53.549  0.00  0.00    -0.162 NA
BRANCH  13  17
ATOM     17  C   UNL d   1      50.078  34.414  52.466  0.00  0.00     0.301 C 
ATOM     18  O   UNL d   1      49.668  34.943  52.900  0.00  0.00    -0.263 OA
ATOM     19  N   UNL d   1      49.965  34.340  51.679  0.00  0.00    -0.102 N 
ENDBRANCH  13  17
ENDBRANCH   1  11
TORSDOF 2
ENDMDL
MODEL 2
REMARK VINA RESULT:      -9.3      1.971      2.976
REMARK  2 active torsions:
REMARK  status: ('A' for Active; 'I' for Inactive)
REMARK    1  A    between atoms: C_7  and  C_2 
REMARK    2  A    between atoms: C_6  and  N_3 
ROOT
ATOM      1  C   UNL d   1      53.290  32.820  53.538  0.00  0.00     0.085 A 
ATOM      2  C   UNL d   1      52.715  32.276  53.351  0.00  0.00     0.019 A 
ATOM      3  C   UNL d   1      52.897  31.473  53.312  0.00  0.00     0.002 A 
ATOM      4  C   UNL d   1      54.079  32.550  53.693  0.00  0.00     0.019 A 
ATOM      5  C   UNL d   1      53.665  31.210  53.463  0.00  0.00     0.000 A 
ATOM      6  C   UNL d   1      54.268  31.745  53.655  0.00  0.00     0.002 A 
ATOM      7  C   UNL d   1      52.306  30.952  53.124  0.00  0.00     0.000 A 
ATOM      8  C   UNL d   1      53.858  30.420  53.429  0.00  0.00     0.000 A 
ATOM      9  C   UNL d   1      52.467  30.156  53.082  0.00  0.00     0.000 A 
ATOM     10  C   UNL d   1      53.256  29.886  53.236  0.00  0.00     0.000 A 
ENDROOT
BRANCH   1  11
ATOM     11  N   UNL d   1      53.132  33.627  53.582  0.00  0.00    -0.210 N 
ATOM     12  C   UNL d   1      53.216  34.153  54.201  0.00  0.00     0.191 A 
ATOM     13  C   UNL d   1      52.981  34.873  53.943  0.00  0.00     0.118 A 
ATOM     14  N   UNL d   1      53.493  33.964  54.949  0.00  0.00    -0.127 N 
ATOM     15  C   UNL d   1      52.744  34.812  53.155  0.00  0.00     0.129 A 
ATOM     16  N   UNL d   1      52.839  34.051  52.942  0.00  0.00    -0.162 NA
BRANCH  13  17
ATOM     17  C   UNL d   1      52.979  35.562  54.401  0.00  0.00     0.301 C 
ATOM     18  O   UNL d   1      53.635  36.017  54.390  0.00  0.00    -0.263 OA
ATOM     19  N   UNL d   1      52.340  35.759  54.837  0.00  0.00    -0.102 N 
ENDBRANCH  13  17
ENDBRANCH   1  11
TORSDOF 2
ENDMDL
MODEL 3
REMARK VINA RESULT:      -8.9      2.496      3.549
REMARK  2 active torsions:
REMARK  status: ('A' for Active; 'I' for Inactive)
REMARK    1  A    between atoms: C_7  and  C_2 
REMARK    2  A    between atoms: C_6  and  N_3 
ROOT
ATOM      1  C   UNL d   1      53.309  32.444  53.592  0.00  0.00     0.085 A 
ATOM      2  C   UNL d   1      52.706  32.978  53.484  0.00  0.00     0.019 A 
ATOM      3  C   UNL d   1      52.809  33.770  53.690  0.00  0.00     0.002 A 
ATOM      4  C   UNL d   1      54.044  32.710  53.919  0.00  0.00     0.019 A 
ATOM      5  C   UNL d   1      53.526  34.030  54.009  0.00  0.00     0.000 A 
ATOM      6  C   UNL d   1      54.154  33.504  54.127  0.00  0.00     0.002 A 
ATOM      7  C   UNL d   1      52.193  34.284  53.573  0.00  0.00     0.000 A 
ATOM      8  C   UNL d   1      53.641  34.809  54.216  0.00  0.00     0.000 A 
ATOM      9  C   UNL d   1      52.278  35.068  53.770  0.00  0.00     0.000 A 
ATOM     10  C   UNL d   1      53.013  35.334  54.097  0.00  0.00     0.000 A 
ENDROOT
BRANCH   1  11
ATOM     11  N   UNL d   1      53.229  31.648  53.394  0.00  0.00    -0.210 N 
ATOM     12  C   UNL d   1      53.205  30.981  53.864  0.00  0.00     0.191 A 
ATOM     13  C   UNL d   1      53.119  30.346  53.385  0.00  0.00     0.118 A 
ATOM     14  N   UNL d   1      53.262  30.977  54.683  0.00  0.00    -0.127 N 
ATOM     15  C   UNL d   1      53.087  30.604  52.602  0.00  0.00     0.129 A 
ATOM     16  N   UNL d   1      53.154  31.397  52.614  0.00  0.00    -0.162 NA
BRANCH  13  17
ATOM     17  C   UNL d   1      53.072  29.562  53.643  0.00  0.00     0.301 C 
ATOM     18  O   UNL d   1      52.386  29.172  53.521  0.00  0.00    -0.263 OA
ATOM     19  N   UNL d   1      53.694  29.214  54.002  0.00  0.00    -0.102 N 
ENDBRANCH  13  17
ENDBRANCH   1  11
TORSDOF 2
ENDMDL
MODEL 4
REMARK VINA RESULT:      -8.8      2.015      4.003
REMARK  2 active torsions:
REMARK  status: ('A' for Active; 'I' for Inactive)
REMARK    1  A    between atoms: C_7  and  C_2 
REMARK    2  A    between atoms: C_6  and  N_3 
ROOT
ATOM      1  C   UNL d   1      52.760  33.759  53.375  0.00  0.00     0.085 A 
ATOM      2  C   UNL d   1      52.009  33.523  53.578  0.00  0.00     0.019 A 
ATOM      3  C   UNL d   1      51.361  33.762  53.128  0.00  0.00     0.002 A 
ATOM      4  C   UNL d   1      52.868  34.255  52.696  0.00  0.00     0.019 A 
ATOM      5  C   UNL d   1      51.466  34.245  52.466  0.00  0.00     0.000 A 
ATOM      6  C   UNL d   1      52.222  34.498  52.240  0.00  0.00     0.002 A 
ATOM      7  C   UNL d   1      50.623  33.513  53.351  0.00  0.00     0.000 A 
ATOM      8  C   UNL d   1      50.835  34.488  52.013  0.00  0.00     0.000 A 
ATOM      9  C   UNL d   1      49.973  33.739  52.918  0.00  0.00     0.000 A 
ATOM     10  C   UNL d   1      50.080  34.235  52.239  0.00  0.00     0.000 A 
ENDROOT
BRANCH   1  11
ATOM     11  N   UNL d   1      53.422  33.533  53.810  0.00  0.00    -0.210 N 
ATOM     12  C   UNL d   1      53.757  33.857  54.480  0.00  0.00     0.191 A 
ATOM     13  C   UNL d   1      54.397  33.417  54.672  0.00  0.00     0.118 A 
ATOM     14  N   UNL d   1      53.477  34.518  54.877  0.00  0.00    -0.127 N 
ATOM     15  C   UNL d   1      54.476  32.805  54.124  0.00  0.00     0.129 A 
ATOM     16  N   UNL d   1      53.880  32.882  53.602  0.00  0.00    -0.162 NA
BRANCH  13  17
ATOM     17  C   UNL d   1      54.893  33.560  55.319  0.00  0.00     0.301 C 
ATOM     18  O   UNL d   1      55.515  34.047  55.208  0.00  0.00    -0.263 OA
ATOM     19  N   UNL d   1      54.747  33.220  56.026  0.00  0.00    -0.102 N 
ENDBRANCH  13  17
ENDBRANCH   1  11
TORSDOF 2
ENDMDL
