MODEL 1
REMARK VINA RESULT:      -1.8      0.000      0.000
REMARK  3 active torsions:
REMARK  status: ('A' for Active; 'I' for Inactive)
REMARK       I    between atoms: C_4  and  N_1 
REMARK    1  A    between atoms: C_7  and  C_3 
REMARK    2  A    between atoms: C_9  and  C_4 
REMARK    3  A    between atoms: C_8  and  C_5 
ROOT
ATOM      1  N   UNL d   1      32.635  22.216 -22.134  0.00  0.00    -0.191 N 
ATOM      2  N   UNL d   1      32.749  21.575 -22.628  0.00  0.00    -0.163 NA
ATOM      3  C   UNL d   1      32.616  21.910 -21.348  0.00  0.00     0.110 A 
ATOM      4  C   UNL d   1      32.555  22.995 -22.346  0.00  0.00     0.303 C 
ATOM      5  C   UNL d   1      32.801  20.886 -22.177  0.00  0.00     0.103 A 
ATOM      6  C   UNL d   1      32.720  21.090 -21.398  0.00  0.00     0.042 A 
ATOM      7  O   UNL d   1      32.437  23.589 -21.724  0.00  0.00    -0.263 OA
ENDROOT
BRANCH   3   8
ATOM      8  C   UNL d   1      32.512  22.353 -20.659  0.00  0.00     0.118 A 
ATOM      9  O   UNL d   1      31.796  22.598 -20.361  0.00  0.00    -0.304 OA
ATOM     10  C   UNL d   1      31.943  23.029 -19.659  0.00  0.00     0.123 A 
ATOM     11  C   UNL d   1      32.760  23.038 -19.541  0.00  0.00     0.029 A 
ATOM     12  C   UNL d   1      33.105  22.612 -20.172  0.00  0.00     0.028 A 
ENDBRANCH   3   8
BRANCH   4  13
ATOM     13  C   UNL d   1      32.581  23.241 -23.125  0.00  0.00     0.158 A 
ATOM     14  O   UNL d   1      33.241  23.267 -23.612  0.00  0.00    -0.300 OA
ATOM     15  C   UNL d   1      33.021  23.548 -24.350  0.00  0.00     0.123 A 
ATOM     16  C   UNL d   1      32.213  23.701 -24.327  0.00  0.00     0.029 A 
ATOM     17  C   UNL d   1      31.933  23.512 -23.569  0.00  0.00     0.032 A 
ENDBRANCH   4  13
BRANCH   5  18
ATOM     18  C   UNL d   1      32.917  20.125 -22.496  0.00  0.00     0.019 A 
ATOM     19  C   UNL d   1      32.829  19.494 -22.009  0.00  0.00     0.002 A 
ATOM     20  C   UNL d   1      32.936  18.727 -22.291  0.00  0.00     0.000 A 
ATOM     21  C   UNL d   1      33.134  18.614 -23.076  0.00  0.00     0.000 A 
ATOM     22  C   UNL d   1      33.230  19.258 -23.596  0.00  0.00     0.000 A 
ATOM     23  C   UNL d   1      33.240  17.845 -23.352  0.00  0.00     0.000 C 
ATOM     24  C   UNL d   1      33.116  20.039 -23.288  0.00  0.00     0.002 A 
ENDBRANCH   5  18
TORSDOF 3
ENDMDL
MODEL 2
REMARK VINA RESULT:      -1.5      3.223      5.450
REMARK  3 active torsions:
REMARK  status: ('A' for Active; 'I' for Inactive)
REMARK       I    between atoms: C_4  and  N_1 
REMARK    1  A    between atoms: C_7  and  C_3 
REMARK    2  A    between atoms: C_9  and  C_4 
REMARK    3  A    between atoms: C_8  and  C_5 
ROOT
ATOM      1  N   UNL d   1      31.767  17.745 -23.910  0.00  0.00    -0.191 N 
ATOM      2  N   UNL d   1      31.759  18.539 -23.718  0.00  0.00    -0.163 NA
ATOM      3  C   UNL d   1      32.545  17.467 -23.741  0.00  0.00     0.110 A 
ATOM      4  C   UNL d   1      31.155  17.303 -24.205  0.00  0.00     0.303 C 
ATOM      5  C   UNL d   1      32.502  18.761 -23.436  0.00  0.00     0.103 A 
ATOM      6  C   UNL d   1      32.981  18.109 -23.451  0.00  0.00     0.042 A 
ATOM      7  O   UNL d   1      31.288  16.460 -24.371  0.00  0.00    -0.263 OA
ENDROOT
BRANCH   3   8
ATOM      8  C   UNL d   1      32.818  16.695 -23.847  0.00  0.00     0.118 A 
ATOM      9  O   UNL d   1      32.964  16.343 -24.566  0.00  0.00    -0.304 OA
ATOM     10  C   UNL d   1      33.230  15.563 -24.421  0.00  0.00     0.123 A 
ATOM     11  C   UNL d   1      33.241  15.454 -23.604  0.00  0.00     0.029 A 
ATOM     12  C   UNL d   1      32.981  16.168 -23.255  0.00  0.00     0.028 A 
ENDBRANCH   3   8
BRANCH   4  13
ATOM     13  C   UNL d   1      30.417  17.620 -24.352  0.00  0.00     0.158 A 
ATOM     14  O   UNL d   1      30.209  18.119 -24.970  0.00  0.00    -0.300 OA
ATOM     15  C   UNL d   1      29.413  18.306 -24.910  0.00  0.00     0.123 A 
ATOM     16  C   UNL d   1      29.116  17.919 -24.247  0.00  0.00     0.029 A 
ATOM     17  C   UNL d   1      29.734  17.492 -23.896  0.00  0.00     0.032 A 
ENDBRANCH   4  13
BRANCH   5  18
ATOM     18  C   UNL d   1      32.697  19.533 -23.188  0.00  0.00     0.019 A 
ATOM     19  C   UNL d   1      32.532  19.738 -22.431  0.00  0.00     0.002 A 
ATOM     20  C   UNL d   1      32.712  20.493 -22.151  0.00  0.00     0.000 A 
ATOM     21  C   UNL d   1      33.061  21.033 -22.655  0.00  0.00     0.000 A 
ATOM     22  C   UNL d   1      33.240  20.836 -23.445  0.00  0.00     0.000 A 
ATOM     23  C   UNL d   1      33.239  21.785 -22.370  0.00  0.00     0.000 C 
ATOM     24  C   UNL d   1      33.048  20.056 -23.714  0.00  0.00     0.002 A 
ENDBRANCH   5  18
TORSDOF 3
ENDMDL
MODEL 3
REMARK VINA RESULT:       0.4      0.820      2.848
REMARK  3 active torsions:
REMARK  status: ('A' for Active; 'I' for Inactive)
REMARK       I    between atoms: C_4  and  N_1 
REMARK    1  A    between atoms: C_7  and  C_3 
REMARK    2  A    between atoms: C_9  and  C_4 
REMARK    3  A    between atoms: C_8  and  C_5 
ROOT
ATOM      1  N   UNL d   1      32.826  21.601 -22.771  0.00  0.00    -0.191 N 
ATOM      2  N   UNL d   1      32.871  20.813 -22.563  0.00  0.00    -0.163 NA
ATOM      3  C   UNL d   1      32.909  21.630 -23.611  0.00  0.00     0.110 A 
ATOM      4  C   UNL d   1      32.723  22.237 -22.279  0.00  0.00     0.303 C 
ATOM      5  C   UNL d   1      32.978  20.354 -23.240  0.00  0.00     0.103 A 
ATOM      6  C   UNL d   1      33.001  20.852 -23.878  0.00  0.00     0.042 A 
ATOM      7  O   UNL d   1      32.691  23.033 -22.623  0.00  0.00    -0.263 OA
ENDROOT
BRANCH   3   8
ATOM      8  C   UNL d   1      32.898  22.313 -24.075  0.00  0.00     0.118 A 
ATOM      9  O   UNL d   1      32.547  23.017 -23.867  0.00  0.00    -0.304 OA
ATOM     10  C   UNL d   1      32.667  23.559 -24.494  0.00  0.00     0.123 A 
ATOM     11  C   UNL d   1      33.096  23.167 -25.080  0.00  0.00     0.029 A 
ATOM     12  C   UNL d   1      33.235  22.389 -24.807  0.00  0.00     0.028 A 
ENDBRANCH   3   8
BRANCH   4  13
ATOM     13  C   UNL d   1      32.648  22.155 -21.469  0.00  0.00     0.158 A 
ATOM     14  O   UNL d   1      31.985  21.901 -21.059  0.00  0.00    -0.300 OA
ATOM     15  C   UNL d   1      32.148  21.901 -20.255  0.00  0.00     0.123 A 
ATOM     16  C   UNL d   1      32.924  22.159 -20.159  0.00  0.00     0.029 A 
ATOM     17  C   UNL d   1      33.240  22.318 -20.909  0.00  0.00     0.032 A 
ENDBRANCH   4  13
BRANCH   5  18
ATOM     18  C   UNL d   1      33.048  19.523 -23.238  0.00  0.00     0.019 A 
ATOM     19  C   UNL d   1      32.991  19.138 -23.939  0.00  0.00     0.002 A 
ATOM     20  C   UNL d   1      33.055  18.317 -23.974  0.00  0.00     0.000 A 
ATOM     21  C   UNL d   1      33.177  17.896 -23.284  0.00  0.00     0.000 A 
ATOM     22  C   UNL d   1      33.239  18.281 -22.546  0.00  0.00     0.000 A 
ATOM     23  C   UNL d   1      33.240  17.075 -23.325  0.00  0.00     0.000 C 
ATOM     24  C   UNL d   1      33.170  19.125 -22.531  0.00  0.00     0.002 A 
ENDBRANCH   5  18
TORSDOF 3
ENDMDL
MODEL 4
REMARK VINA RESULT:       0.5      1.209      3.626
REMARK  3 active torsions:
REMARK  status: ('A' for Active; 'I' for Inactive)
REMARK       I    between atoms: C_4  and  N_1 
REMARK    1  A    between atoms: C_7  and  C_3 
REMARK    2  A    between atoms: C_9  and  C_4 
REMARK    3  A    between atoms: C_8  and  C_5 
ROOT
ATOM      1  N   UNL d   1      32.810  21.243 -22.430  0.00  0.00    -0.191 N 
ATOM      2  N   UNL d   1      32.777  21.873 -21.910  0.00  0.00    -0.163 NA
ATOM      3  C   UNL d   1      32.687  20.548 -21.969  0.00  0.00     0.110 A 
ATOM      4  C   UNL d   1      32.936  21.271 -23.231  0.00  0.00     0.303 C 
ATOM      5  C   UNL d   1      32.638  21.592 -21.147  0.00  0.00     0.103 A 
ATOM      6  C   UNL d   1      32.583  20.785 -21.183  0.00  0.00     0.042 A 
ATOM      7  O   UNL d   1      32.949  20.527 -23.679  0.00  0.00    -0.263 OA
ENDROOT
BRANCH   3   8
ATOM      8  C   UNL d   1      32.673  19.773 -22.256  0.00  0.00     0.118 A 
ATOM      9  O   UNL d   1      32.085  19.454 -22.718  0.00  0.00    -0.304 OA
ATOM     10  C   UNL d   1      32.290  18.659 -22.883  0.00  0.00     0.123 A 
ATOM     11  C   UNL d   1      33.011  18.509 -22.512  0.00  0.00     0.029 A 
ATOM     12  C   UNL d   1      33.241  19.213 -22.123  0.00  0.00     0.028 A 
ENDBRANCH   3   8
BRANCH   4  13
ATOM     13  C   UNL d   1      33.051  21.973 -23.632  0.00  0.00     0.158 A 
ATOM     14  O   UNL d   1      33.135  22.720 -23.303  0.00  0.00    -0.300 OA
ATOM     15  C   UNL d   1      33.239  23.270 -23.903  0.00  0.00     0.123 A 
ATOM     16  C   UNL d   1      33.220  22.863 -24.618  0.00  0.00     0.029 A 
ATOM     17  C   UNL d   1      33.103  22.058 -24.457  0.00  0.00     0.032 A 
ENDBRANCH   4  13
BRANCH   5  18
ATOM     18  C   UNL d   1      32.571  22.079 -20.473  0.00  0.00     0.019 A 
ATOM     19  C   UNL d   1      33.241  22.397 -20.169  0.00  0.00     0.002 A 
ATOM     20  C   UNL d   1      33.211  22.883 -19.504  0.00  0.00     0.000 A 
ATOM     21  C   UNL d   1      32.489  23.039 -19.155  0.00  0.00     0.000 A 
ATOM     22  C   UNL d   1      31.782  22.716 -19.458  0.00  0.00     0.000 A 
ATOM     23  C   UNL d   1      32.465  23.525 -18.490  0.00  0.00     0.000 C 
ATOM     24  C   UNL d   1      31.833  22.219 -20.142  0.00  0.00     0.002 A 
ENDBRANCH   5  18
TORSDOF 3
ENDMDL
