MODEL 1
REMARK VINA RESULT:      -3.5      0.000      0.000
REMARK  4 active torsions:
REMARK  status: ('A' for Active; 'I' for Inactive)
REMARK    1  A    between atoms: C_4  and  N_1 
REMARK    2  A    between atoms: S_8  and  C_5 
REMARK    3  A    between atoms: C_10  and  C_7 
REMARK    4  A    between atoms: C_9  and  S_8 
ROOT
ATOM      1  N   UNL d   1      58.074   0.192  30.740  0.00  0.00    -0.241 N 
ATOM      2  C   UNL d   1      58.534   0.352  31.401  0.00  0.00     0.268 A 
ATOM      3  C   UNL d   1      57.278   0.216  30.965  0.00  0.00     0.273 A 
ATOM      4  C   UNL d   1      57.250   0.392  31.766  0.00  0.00     0.091 A 
ATOM      5  C   UNL d   1      58.025   0.477  32.040  0.00  0.00     0.072 A 
ATOM      6  O   UNL d   1      59.359   0.384  31.425  0.00  0.00    -0.267 OA
ATOM      7  O   UNL d   1      56.630   0.086  30.471  0.00  0.00    -0.266 OA
ENDROOT
BRANCH   1   8
ATOM      8  C   UNL d   1      58.357   0.035  29.986  0.00  0.00     0.070 A 
ATOM      9  C   UNL d   1      58.510  -0.745  29.748  0.00  0.00     0.016 A 
ATOM     10  C   UNL d   1      58.796  -0.898  28.987  0.00  0.00     0.001 A 
ATOM     11  C   UNL d   1      58.374  -1.360  30.274  0.00  0.00     0.001 A 
ATOM     12  C   UNL d   1      58.945  -1.667  28.753  0.00  0.00     0.000 A 
ATOM     13  C   UNL d   1      58.929  -0.281  28.465  0.00  0.00     0.000 A 
ATOM     14  C   UNL d   1      58.812  -2.294  29.276  0.00  0.00     0.000 A 
ATOM     15  C   UNL d   1      58.525  -2.137  30.038  0.00  0.00     0.000 A 
ATOM     16  C   UNL d   1      58.779   0.502  28.696  0.00  0.00     0.002 A 
ATOM     17  C   UNL d   1      58.494   0.656  29.455  0.00  0.00     0.018 A 
ENDBRANCH   1   8
BRANCH   4  18
ATOM     18  S   UNL d   1      56.564   0.471  32.226  0.00  0.00    -0.082 SA
BRANCH  18  19
ATOM     19  C   UNL d   1      56.694   0.421  33.035  0.00  0.00     0.035 A 
ATOM     20  C   UNL d   1      56.107   0.115  33.524  0.00  0.00     0.070 A 
ATOM     21  C   UNL d   1      56.241   0.067  34.336  0.00  0.00     0.007 A 
ATOM     22  C   UNL d   1      56.954   0.321  34.655  0.00  0.00     0.000 A 
ATOM     23  C   UNL d   1      57.537   0.626  34.162  0.00  0.00     0.001 A 
ATOM     24  C   UNL d   1      57.414   0.678  33.361  0.00  0.00     0.007 A 
BRANCH  20  25
ATOM     25  C   UNL d   1      55.394  -0.140  33.202  0.00  0.00     0.211 C 
ATOM     26  O   UNL d   1      54.736   0.359  33.216  0.00  0.00    -0.644 OA
ATOM     27  O   UNL d   1      55.339  -0.893  32.868  0.00  0.00    -0.644 OA
ENDBRANCH  20  25
ENDBRANCH  18  19
ENDBRANCH   4  18
TORSDOF 4
ENDMDL
MODEL 2
REMARK VINA RESULT:      -3.1      1.303      4.530
REMARK  4 active torsions:
REMARK  status: ('A' for Active; 'I' for Inactive)
REMARK    1  A    between atoms: C_4  and  N_1 
REMARK    2  A    between atoms: S_8  and  C_5 
REMARK    3  A    between atoms: C_10  and  C_7 
REMARK    4  A    between atoms: C_9  and  S_8 
ROOT
ATOM      1  N   UNL d   1      57.332   0.186  31.797  0.00  0.00    -0.241 N 
ATOM      2  C   UNL d   1      56.941   0.448  31.124  0.00  0.00     0.268 A 
ATOM      3  C   UNL d   1      58.116   0.016  31.593  0.00  0.00     0.273 A 
ATOM      4  C   UNL d   1      58.206   0.174  30.792  0.00  0.00     0.091 A 
ATOM      5  C   UNL d   1      57.481   0.441  30.499  0.00  0.00     0.072 A 
ATOM      6  O   UNL d   1      56.149   0.677  31.078  0.00  0.00    -0.267 OA
ATOM      7  O   UNL d   1      58.700  -0.262  32.104  0.00  0.00    -0.266 OA
ENDROOT
BRANCH   1   8
ATOM      8  C   UNL d   1      57.000   0.108  32.544  0.00  0.00     0.070 A 
ATOM      9  C   UNL d   1      56.520  -0.545  32.724  0.00  0.00     0.016 A 
ATOM     10  C   UNL d   1      56.188  -0.619  33.478  0.00  0.00     0.001 A 
ATOM     11  C   UNL d   1      56.381  -1.113  32.149  0.00  0.00     0.001 A 
ATOM     12  C   UNL d   1      55.716  -1.263  33.654  0.00  0.00     0.000 A 
ATOM     13  C   UNL d   1      56.330  -0.049  34.049  0.00  0.00     0.000 A 
ATOM     14  C   UNL d   1      55.569  -1.841  33.082  0.00  0.00     0.000 A 
ATOM     15  C   UNL d   1      55.904  -1.763  32.327  0.00  0.00     0.000 A 
ATOM     16  C   UNL d   1      56.808   0.606  33.876  0.00  0.00     0.002 A 
ATOM     17  C   UNL d   1      57.141   0.682  33.124  0.00  0.00     0.018 A 
ENDBRANCH   1   8
BRANCH   4  18
ATOM     18  S   UNL d   1      58.902   0.082  30.351  0.00  0.00    -0.082 SA
BRANCH  18  19
ATOM     19  C   UNL d   1      58.868  -0.516  29.791  0.00  0.00     0.035 A 
ATOM     20  C   UNL d   1      59.405  -0.521  29.167  0.00  0.00     0.070 A 
ATOM     21  C   UNL d   1      59.367  -1.124  28.606  0.00  0.00     0.007 A 
ATOM     22  C   UNL d   1      58.800  -1.715  28.668  0.00  0.00     0.000 A 
ATOM     23  C   UNL d   1      58.267  -1.705  29.293  0.00  0.00     0.001 A 
ATOM     24  C   UNL d   1      58.295  -1.116  29.851  0.00  0.00     0.007 A 
BRANCH  20  25
ATOM     25  C   UNL d   1      59.972   0.072  29.106  0.00  0.00     0.211 C 
ATOM     26  O   UNL d   1      59.877   0.677  28.552  0.00  0.00    -0.644 OA
ATOM     27  O   UNL d   1      60.635   0.059  29.599  0.00  0.00    -0.644 OA
ENDBRANCH  20  25
ENDBRANCH  18  19
ENDBRANCH   4  18
TORSDOF 4
ENDMDL
MODEL 3
REMARK VINA RESULT:      -2.9      1.509      4.207
REMARK  4 active torsions:
REMARK  status: ('A' for Active; 'I' for Inactive)
REMARK    1  A    between atoms: C_4  and  N_1 
REMARK    2  A    between atoms: S_8  and  C_5 
REMARK    3  A    between atoms: C_10  and  C_7 
REMARK    4  A    between atoms: C_9  and  S_8 
ROOT
ATOM      1  N   UNL d   1      56.934   0.284  32.351  0.00  0.00    -0.241 N 
ATOM      2  C   UNL d   1      57.678   0.498  32.622  0.00  0.00     0.268 A 
ATOM      3  C   UNL d   1      56.944   0.300  31.523  0.00  0.00     0.273 A 
ATOM      4  C   UNL d   1      57.698   0.525  31.287  0.00  0.00     0.091 A 
ATOM      5  C   UNL d   1      58.155   0.649  31.964  0.00  0.00     0.072 A 
ATOM      6  O   UNL d   1      57.912   0.554  33.412  0.00  0.00    -0.267 OA
ATOM      7  O   UNL d   1      56.311   0.123  31.027  0.00  0.00    -0.266 OA
ENDROOT
BRANCH   1   8
ATOM      8  C   UNL d   1      56.290   0.088  32.821  0.00  0.00     0.070 A 
ATOM      9  C   UNL d   1      56.056  -0.703  32.904  0.00  0.00     0.016 A 
ATOM     10  C   UNL d   1      55.407  -0.895  33.380  0.00  0.00     0.001 A 
ATOM     11  C   UNL d   1      56.474  -1.290  32.511  0.00  0.00     0.001 A 
ATOM     12  C   UNL d   1      55.177  -1.676  33.461  0.00  0.00     0.000 A 
ATOM     13  C   UNL d   1      54.994  -0.306  33.771  0.00  0.00     0.000 A 
ATOM     14  C   UNL d   1      55.591  -2.275  33.069  0.00  0.00     0.000 A 
ATOM     15  C   UNL d   1      56.242  -2.078  32.593  0.00  0.00     0.000 A 
ATOM     16  C   UNL d   1      55.222   0.487  33.692  0.00  0.00     0.002 A 
ATOM     17  C   UNL d   1      55.870   0.681  33.218  0.00  0.00     0.018 A 
ENDBRANCH   1   8
BRANCH   4  18
ATOM     18  S   UNL d   1      57.959   0.615  30.505  0.00  0.00    -0.082 SA
BRANCH  18  19
ATOM     19  C   UNL d   1      58.768   0.519  30.408  0.00  0.00     0.035 A 
ATOM     20  C   UNL d   1      59.064   0.262  29.685  0.00  0.00     0.070 A 
ATOM     21  C   UNL d   1      59.878   0.168  29.591  0.00  0.00     0.007 A 
ATOM     22  C   UNL d   1      60.389   0.329  30.214  0.00  0.00     0.000 A 
ATOM     23  C   UNL d   1      60.088   0.585  30.934  0.00  0.00     0.001 A 
ATOM     24  C   UNL d   1      59.288   0.681  31.036  0.00  0.00     0.007 A 
BRANCH  20  25
ATOM     25  C   UNL d   1      58.551   0.101  29.062  0.00  0.00     0.211 C 
ATOM     26  O   UNL d   1      58.153  -0.621  29.034  0.00  0.00    -0.644 OA
ATOM     27  O   UNL d   1      58.436   0.664  28.468  0.00  0.00    -0.644 OA
ENDBRANCH  20  25
ENDBRANCH  18  19
ENDBRANCH   4  18
TORSDOF 4
ENDMDL
MODEL 4
REMARK VINA RESULT:      -2.9      1.588      4.640
REMARK  4 active torsions:
REMARK  status: ('A' for Active; 'I' for Inactive)
REMARK    1  A    between atoms: C_4  and  N_1 
REMARK    2  A    between atoms: S_8  and  C_5 
REMARK    3  A    between atoms: C_10  and  C_7 
REMARK    4  A    between atoms: C_9  and  S_8 
ROOT
ATOM      1  N   UNL d   1      57.088  -0.630  31.381  0.00  0.00    -0.241 N 
ATOM      2  C   UNL d   1      57.081  -0.010  30.842  0.00  0.00     0.268 A 
ATOM      3  C   UNL d   1      57.621  -1.203  31.111  0.00  0.00     0.273 A 
ATOM      4  C   UNL d   1      57.941  -0.933  30.404  0.00  0.00     0.091 A 
ATOM      5  C   UNL d   1      57.610  -0.196  30.235  0.00  0.00     0.072 A 
ATOM      6  O   UNL d   1      56.627   0.678  30.896  0.00  0.00    -0.267 OA
ATOM      7  O   UNL d   1      57.797  -1.916  31.485  0.00  0.00    -0.266 OA
ENDROOT
BRANCH   1   8
ATOM      8  C   UNL d   1      56.642  -0.671  32.069  0.00  0.00     0.070 A 
ATOM      9  C   UNL d   1      56.861  -0.234  32.738  0.00  0.00     0.016 A 
ATOM     10  C   UNL d   1      56.408  -0.279  33.429  0.00  0.00     0.001 A 
ATOM     11  C   UNL d   1      57.528   0.242  32.708  0.00  0.00     0.001 A 
ATOM     12  C   UNL d   1      56.625   0.153  34.089  0.00  0.00     0.000 A 
ATOM     13  C   UNL d   1      55.743  -0.756  33.455  0.00  0.00     0.000 A 
ATOM     14  C   UNL d   1      57.296   0.636  34.068  0.00  0.00     0.000 A 
ATOM     15  C   UNL d   1      57.747   0.679  33.373  0.00  0.00     0.000 A 
ATOM     16  C   UNL d   1      55.518  -1.197  32.789  0.00  0.00     0.002 A 
ATOM     17  C   UNL d   1      55.969  -1.153  32.099  0.00  0.00     0.018 A 
ENDBRANCH   1   8
BRANCH   4  18
ATOM     18  S   UNL d   1      58.501  -1.330  29.938  0.00  0.00    -0.082 SA
BRANCH  18  19
ATOM     19  C   UNL d   1      59.075  -0.841  29.614  0.00  0.00     0.035 A 
ATOM     20  C   UNL d   1      59.641  -1.159  29.107  0.00  0.00     0.070 A 
ATOM     21  C   UNL d   1      60.216  -0.665  28.783  0.00  0.00     0.007 A 
ATOM     22  C   UNL d   1      60.224   0.137  28.964  0.00  0.00     0.000 A 
ATOM     23  C   UNL d   1      59.657   0.448  29.470  0.00  0.00     0.001 A 
ATOM     24  C   UNL d   1      59.086  -0.030  29.794  0.00  0.00     0.007 A 
BRANCH  20  25
ATOM     25  C   UNL d   1      59.631  -1.962  28.928  0.00  0.00     0.211 C 
ATOM     26  O   UNL d   1      58.954  -2.300  28.599  0.00  0.00    -0.644 OA
ATOM     27  O   UNL d   1      60.298  -2.425  29.077  0.00  0.00    -0.644 OA
ENDBRANCH  20  25
ENDBRANCH  18  19
ENDBRANCH   4  18
TORSDOF 4
ENDMDL
