MODEL 1
REMARK VINA RESULT:      -7.3      0.000      0.000
REMARK  3 active torsions:
REMARK  status: ('A' for Active; 'I' for Inactive)
REMARK    1  A    between atoms: C_2  and  N_1 
REMARK    2  A    between atoms: C_4  and  N_1 
REMARK    3  A    between atoms: C_5  and  C_2 
ROOT
ATOM      1  N   UNL d   1     -48.638  12.620  22.739  0.00  0.00    -0.184 N 
ATOM      2  O   UNL d   1     -48.402  12.460  21.968  0.00  0.00    -0.080 OA
ENDROOT
BRANCH   1   3
ATOM      3  C   UNL d   1     -48.103  12.928  23.276  0.00  0.00     0.108 C 
BRANCH   3   4
ATOM      4  C   UNL d   1     -47.355  13.178  23.022  0.00  0.00     0.020 A 
ATOM      5  C   UNL d   1     -47.230  13.980  22.850  0.00  0.00     0.004 A 
ATOM      6  C   UNL d   1     -46.485  14.229  22.597  0.00  0.00     0.030 A 
ATOM      7  C   UNL d   1     -45.875  13.692  22.515  0.00  0.00     0.140 A 
ATOM      8  C   UNL d   1     -46.010  12.901  22.688  0.00  0.00     0.030 A 
ATOM      9  F   UNL d   1     -45.133  13.939  22.263  0.00  0.00    -0.204 F 
ATOM     10  C   UNL d   1     -46.751  12.640  22.942  0.00  0.00     0.004 A 
ENDBRANCH   3   4
ENDBRANCH   1   3
BRANCH   1  11
ATOM     11  C   UNL d   1     -49.423  12.466  22.969  0.00  0.00     0.090 A 
ATOM     12  C   UNL d   1     -49.586  11.848  23.473  0.00  0.00     0.020 A 
ATOM     13  C   UNL d   1     -50.361  11.702  23.695  0.00  0.00     0.002 A 
ATOM     14  C   UNL d   1     -50.973  12.181  23.409  0.00  0.00     0.000 A 
ATOM     15  C   UNL d   1     -50.795  12.808  22.897  0.00  0.00     0.002 A 
ATOM     16  C   UNL d   1     -50.024  12.953  22.676  0.00  0.00     0.020 A 
ENDBRANCH   1  11
TORSDOF 3
ENDMDL
MODEL 2
REMARK VINA RESULT:      -7.0      1.405      1.872
REMARK  3 active torsions:
REMARK  status: ('A' for Active; 'I' for Inactive)
REMARK    1  A    between atoms: C_2  and  N_1 
REMARK    2  A    between atoms: C_4  and  N_1 
REMARK    3  A    between atoms: C_5  and  C_2 
ROOT
ATOM      1  N   UNL d   1     -48.851  13.077  22.330  0.00  0.00    -0.184 N 
ATOM      2  O   UNL d   1     -48.431  12.760  21.699  0.00  0.00    -0.080 OA
ENDROOT
BRANCH   1   3
ATOM      3  C   UNL d   1     -48.542  13.043  23.088  0.00  0.00     0.108 C 
BRANCH   3   4
ATOM      4  C   UNL d   1     -47.869  12.585  23.242  0.00  0.00     0.020 A 
ATOM      5  C   UNL d   1     -47.116  12.916  23.129  0.00  0.00     0.004 A 
ATOM      6  C   UNL d   1     -46.446  12.460  23.283  0.00  0.00     0.030 A 
ATOM      7  C   UNL d   1     -46.520  11.689  23.545  0.00  0.00     0.140 A 
ATOM      8  C   UNL d   1     -47.270  11.373  23.653  0.00  0.00     0.030 A 
ATOM      9  F   UNL d   1     -45.853  11.235  23.698  0.00  0.00    -0.204 F 
ATOM     10  C   UNL d   1     -47.947  11.819  23.502  0.00  0.00     0.004 A 
ENDBRANCH   3   4
ENDBRANCH   1   3
BRANCH   1  11
ATOM     11  C   UNL d   1     -49.591  13.432  22.195  0.00  0.00     0.090 A 
ATOM     12  C   UNL d   1     -49.691  14.229  22.324  0.00  0.00     0.020 A 
ATOM     13  C   UNL d   1     -50.423  14.572  22.188  0.00  0.00     0.002 A 
ATOM     14  C   UNL d   1     -51.055  14.109  21.921  0.00  0.00     0.000 A 
ATOM     15  C   UNL d   1     -50.942  13.299  21.793  0.00  0.00     0.002 A 
ATOM     16  C   UNL d   1     -50.215  12.957  21.927  0.00  0.00     0.020 A 
ENDBRANCH   1  11
TORSDOF 3
ENDMDL
MODEL 3
REMARK VINA RESULT:      -6.9      1.512      2.009
REMARK  3 active torsions:
REMARK  status: ('A' for Active; 'I' for Inactive)
REMARK    1  A    between atoms: C_2  and  N_1 
REMARK    2  A    between atoms: C_4  and  N_1 
REMARK    3  A    between atoms: C_5  and  C_2 
ROOT
ATOM      1  N   UNL d   1     -48.545  14.245  22.562  0.00  0.00    -0.184 N 
ATOM      2  O   UNL d   1     -48.438  13.863  21.841  0.00  0.00    -0.080 OA
ENDROOT
BRANCH   1   3
ATOM      3  C   UNL d   1     -47.934  14.273  23.106  0.00  0.00     0.108 C 
BRANCH   3   4
ATOM      4  C   UNL d   1     -47.253  13.816  22.992  0.00  0.00     0.020 A 
ATOM      5  C   UNL d   1     -47.234  13.035  23.272  0.00  0.00     0.004 A 
ATOM      6  C   UNL d   1     -46.555  12.580  23.158  0.00  0.00     0.030 A 
ATOM      7  C   UNL d   1     -45.906  12.894  22.772  0.00  0.00     0.140 A 
ATOM      8  C   UNL d   1     -45.937  13.667  22.498  0.00  0.00     0.030 A 
ATOM      9  F   UNL d   1     -45.230  12.440  22.658  0.00  0.00    -0.204 F 
ATOM     10  C   UNL d   1     -46.610  14.131  22.607  0.00  0.00     0.004 A 
ENDBRANCH   3   4
ENDBRANCH   1   3
BRANCH   1  11
ATOM     11  C   UNL d   1     -49.277  14.601  22.733  0.00  0.00     0.090 A 
ATOM     12  C   UNL d   1     -49.301  15.319  23.116  0.00  0.00     0.020 A 
ATOM     13  C   UNL d   1     -50.026  15.664  23.281  0.00  0.00     0.002 A 
ATOM     14  C   UNL d   1     -50.727  15.285  23.060  0.00  0.00     0.000 A 
ATOM     15  C   UNL d   1     -50.690  14.554  22.670  0.00  0.00     0.002 A 
ATOM     16  C   UNL d   1     -49.971  14.210  22.506  0.00  0.00     0.020 A 
ENDBRANCH   1  11
TORSDOF 3
ENDMDL
MODEL 4
REMARK VINA RESULT:      -6.5      2.140      3.508
REMARK  3 active torsions:
REMARK  status: ('A' for Active; 'I' for Inactive)
REMARK    1  A    between atoms: C_2  and  N_1 
REMARK    2  A    between atoms: C_4  and  N_1 
REMARK    3  A    between atoms: C_5  and  C_2 
ROOT
ATOM      1  N   UNL d   1     -48.319  13.034  23.208  0.00  0.00    -0.184 N 
ATOM      2  O   UNL d   1     -49.009  12.780  23.575  0.00  0.00    -0.080 OA
ENDROOT
BRANCH   1   3
ATOM      3  C   UNL d   1     -48.325  13.709  22.743  0.00  0.00     0.108 C 
BRANCH   3   4
ATOM      4  C   UNL d   1     -49.009  14.172  22.692  0.00  0.00     0.020 A 
ATOM      5  C   UNL d   1     -49.598  13.970  22.142  0.00  0.00     0.004 A 
ATOM      6  C   UNL d   1     -50.280  14.432  22.091  0.00  0.00     0.030 A 
ATOM      7  C   UNL d   1     -50.377  15.082  22.577  0.00  0.00     0.140 A 
ATOM      8  C   UNL d   1     -49.788  15.272  23.116  0.00  0.00     0.030 A 
ATOM      9  F   UNL d   1     -51.056  15.542  22.526  0.00  0.00    -0.204 F 
ATOM     10  C   UNL d   1     -49.102  14.818  23.176  0.00  0.00     0.004 A 
ENDBRANCH   3   4
ENDBRANCH   1   3
BRANCH   1  11
ATOM     11  C   UNL d   1     -47.615  12.602  23.311  0.00  0.00     0.090 A 
ATOM     12  C   UNL d   1     -46.898  12.942  23.133  0.00  0.00     0.020 A 
ATOM     13  C   UNL d   1     -46.209  12.511  23.237  0.00  0.00     0.002 A 
ATOM     14  C   UNL d   1     -46.244  11.734  23.521  0.00  0.00     0.000 A 
ATOM     15  C   UNL d   1     -46.980  11.397  23.698  0.00  0.00     0.002 A 
ATOM     16  C   UNL d   1     -47.666  11.826  23.595  0.00  0.00     0.020 A 
ENDBRANCH   1  11
TORSDOF 3
ENDMDL
MODEL 5
REMARK VINA RESULT:      -5.9      8.179      9.926
REMARK  3 active torsions:
REMARK  status: ('A' for Active; 'I' for Inactive)
REMARK    1  A    between atoms: C_2  and  N_1 
REMARK    2  A    between atoms: C_4  and  N_1 
REMARK    3  A    between atoms: C_5  and  C_2 
ROOT
ATOM      1  N   UNL d   1     -39.913  14.162  18.293  0.00  0.00    -0.184 N 
ATOM      2  O   UNL d   1     -40.722  14.050  18.196  0.00  0.00    -0.080 OA
ENDROOT
BRANCH   1   3
ATOM      3  C   UNL d   1     -39.629  14.545  18.959  0.00  0.00     0.108 C 
BRANCH   3   4
ATOM      4  C   UNL d   1     -40.156  14.864  19.512  0.00  0.00     0.020 A 
ATOM      5  C   UNL d   1     -40.379  14.412  20.172  0.00  0.00     0.004 A 
ATOM      6  C   UNL d   1     -40.904  14.730  20.723  0.00  0.00     0.030 A 
ATOM      7  C   UNL d   1     -41.203  15.484  20.622  0.00  0.00     0.140 A 
ATOM      8  C   UNL d   1     -40.976  15.922  19.966  0.00  0.00     0.030 A 
ATOM      9  F   UNL d   1     -41.726  15.801  21.171  0.00  0.00    -0.204 F 
ATOM     10  C   UNL d   1     -40.452  15.614  19.408  0.00  0.00     0.004 A 
ENDBRANCH   3   4
ENDBRANCH   1   3
BRANCH   1  11
ATOM     11  C   UNL d   1     -39.387  13.885  17.711  0.00  0.00     0.090 A 
ATOM     12  C   UNL d   1     -38.990  13.183  17.821  0.00  0.00     0.020 A 
ATOM     13  C   UNL d   1     -38.473  12.916  17.244  0.00  0.00     0.002 A 
ATOM     14  C   UNL d   1     -38.357  13.359  16.554  0.00  0.00     0.000 A 
ATOM     15  C   UNL d   1     -38.766  14.072  16.453  0.00  0.00     0.002 A 
ATOM     16  C   UNL d   1     -39.280  14.338  17.026  0.00  0.00     0.020 A 
ENDBRANCH   1  11
TORSDOF 3
ENDMDL
MODEL 6
REMARK VINA RESULT:      -5.8      8.294      9.814
REMARK  3 active torsions:
REMARK  status: ('A' for Active; 'I' for Inactive)
REMARK    1  A    between atoms: C_2  and  N_1 
REMARK    2  A    between atoms: C_4  and  N_1 
REMARK    3  A    between atoms: C_5  and  C_2 
ROOT
ATOM      1  N   UNL d   1     -40.259  14.443  18.781  0.00  0.00    -0.184 N 
ATOM      2  O   UNL d   1     -40.760  14.028  18.279  0.00  0.00    -0.080 OA
ENDROOT
BRANCH   1   3
ATOM      3  C   UNL d   1     -39.473  14.549  18.581  0.00  0.00     0.108 C 
BRANCH   3   4
ATOM      4  C   UNL d   1     -39.172  14.216  17.885  0.00  0.00     0.020 A 
ATOM      5  C   UNL d   1     -38.866  13.445  17.901  0.00  0.00     0.004 A 
ATOM      6  C   UNL d   1     -38.567  13.113  17.207  0.00  0.00     0.030 A 
ATOM      7  C   UNL d   1     -38.571  13.538  16.509  0.00  0.00     0.140 A 
ATOM      8  C   UNL d   1     -38.875  14.301  16.506  0.00  0.00     0.030 A 
ATOM      9  F   UNL d   1     -38.272  13.208  15.819  0.00  0.00    -0.204 F 
ATOM     10  C   UNL d   1     -39.177  14.643  17.193  0.00  0.00     0.004 A 
ENDBRANCH   3   4
ENDBRANCH   1   3
BRANCH   1  11
ATOM     11  C   UNL d   1     -40.557  14.755  19.493  0.00  0.00     0.090 A 
ATOM     12  C   UNL d   1     -40.645  15.559  19.581  0.00  0.00     0.020 A 
ATOM     13  C   UNL d   1     -40.939  15.859  20.285  0.00  0.00     0.002 A 
ATOM     14  C   UNL d   1     -41.144  15.345  20.902  0.00  0.00     0.000 A 
ATOM     15  C   UNL d   1     -41.049  14.529  20.801  0.00  0.00     0.002 A 
ATOM     16  C   UNL d   1     -40.758  14.230  20.102  0.00  0.00     0.020 A 
ENDBRANCH   1  11
TORSDOF 3
ENDMDL
MODEL 7
REMARK VINA RESULT:      -5.3      8.312      9.398
REMARK  3 active torsions:
REMARK  status: ('A' for Active; 'I' for Inactive)
REMARK    1  A    between atoms: C_2  and  N_1 
REMARK    2  A    between atoms: C_4  and  N_1 
REMARK    3  A    between atoms: C_5  and  C_2 
ROOT
ATOM      1  N   UNL d   1     -40.524  14.722  18.641  0.00  0.00    -0.184 N 
ATOM      2  O   UNL d   1     -40.831  13.970  18.772  0.00  0.00    -0.080 OA
ENDROOT
BRANCH   1   3
ATOM      3  C   UNL d   1     -40.182  15.138  19.257  0.00  0.00     0.108 C 
BRANCH   3   4
ATOM      4  C   UNL d   1     -40.067  14.774  19.992  0.00  0.00     0.020 A 
ATOM      5  C   UNL d   1     -39.337  14.419  20.162  0.00  0.00     0.004 A 
ATOM      6  C   UNL d   1     -39.223  14.056  20.894  0.00  0.00     0.030 A 
ATOM      7  C   UNL d   1     -39.823  14.046  21.449  0.00  0.00     0.140 A 
ATOM      8  C   UNL d   1     -40.541  14.402  21.271  0.00  0.00     0.030 A 
ATOM      9  F   UNL d   1     -39.709  13.685  22.179  0.00  0.00    -0.204 F 
ATOM     10  C   UNL d   1     -40.666  14.767  20.541  0.00  0.00     0.004 A 
ENDBRANCH   3   4
ENDBRANCH   1   3
BRANCH   1  11
ATOM     11  C   UNL d   1     -40.564  15.055  17.880  0.00  0.00     0.090 A 
ATOM     12  C   UNL d   1     -40.012  14.854  17.317  0.00  0.00     0.020 A 
ATOM     13  C   UNL d   1     -40.058  15.186  16.569  0.00  0.00     0.002 A 
ATOM     14  C   UNL d   1     -40.661  15.724  16.389  0.00  0.00     0.000 A 
ATOM     15  C   UNL d   1     -41.218  15.922  16.971  0.00  0.00     0.002 A 
ATOM     16  C   UNL d   1     -41.173  15.591  17.714  0.00  0.00     0.020 A 
ENDBRANCH   1  11
TORSDOF 3
ENDMDL
MODEL 8
REMARK VINA RESULT:      -5.3      9.042      9.410
REMARK  3 active torsions:
REMARK  status: ('A' for Active; 'I' for Inactive)
REMARK    1  A    between atoms: C_2  and  N_1 
REMARK    2  A    between atoms: C_4  and  N_1 
REMARK    3  A    between atoms: C_5  and  C_2 
ROOT
ATOM      1  N   UNL d   1     -40.217  15.066  20.209  0.00  0.00    -0.184 N 
ATOM      2  O   UNL d   1     -40.996  14.815  20.137  0.00  0.00    -0.080 OA
ENDROOT
BRANCH   1   3
ATOM      3  C   UNL d   1     -39.787  15.267  19.542  0.00  0.00     0.108 C 
BRANCH   3   4
ATOM      4  C   UNL d   1     -40.139  15.231  18.793  0.00  0.00     0.020 A 
ATOM      5  C   UNL d   1     -40.503  15.908  18.481  0.00  0.00     0.004 A 
ATOM      6  C   UNL d   1     -40.854  15.872  17.735  0.00  0.00     0.030 A 
ATOM      7  C   UNL d   1     -40.845  15.176  17.306  0.00  0.00     0.140 A 
ATOM      8  C   UNL d   1     -40.482  14.512  17.625  0.00  0.00     0.030 A 
ATOM      9  F   UNL d   1     -41.195  15.140  16.563  0.00  0.00    -0.204 F 
ATOM     10  C   UNL d   1     -40.128  14.537  18.370  0.00  0.00     0.004 A 
ENDBRANCH   3   4
ENDBRANCH   1   3
BRANCH   1  11
ATOM     11  C   UNL d   1     -39.869  15.115  20.963  0.00  0.00     0.090 A 
ATOM     12  C   UNL d   1     -39.576  14.445  21.321  0.00  0.00     0.020 A 
ATOM     13  C   UNL d   1     -39.235  14.501  22.064  0.00  0.00     0.002 A 
ATOM     14  C   UNL d   1     -39.188  15.234  22.446  0.00  0.00     0.000 A 
ATOM     15  C   UNL d   1     -39.490  15.909  22.072  0.00  0.00     0.002 A 
ATOM     16  C   UNL d   1     -39.829  15.854  21.334  0.00  0.00     0.020 A 
ENDBRANCH   1  11
TORSDOF 3
ENDMDL
