MODEL 1
REMARK VINA RESULT:      -0.6      0.000      0.000
REMARK  0 active torsions:
REMARK  status: ('A' for Active; 'I' for Inactive)
ROOT
ATOM      1  N   UNL d   1      46.603 -18.913  42.561  0.00  0.00    -0.273 N 
ATOM      2  C   UNL d   1      46.592 -19.718  42.664  0.00  0.00     0.068 A 
ATOM      3  C   UNL d   1      46.630 -18.594  41.794  0.00  0.00     0.265 A 
ATOM      4  C   UNL d   1      46.565 -20.029  43.426  0.00  0.00     0.035 A 
ATOM      5  C   UNL d   1      46.587 -18.411  43.219  0.00  0.00     0.085 A 
ATOM      6  C   UNL d   1      46.608 -20.212  42.002  0.00  0.00     0.018 A 
ATOM      7  N   UNL d   1      46.520 -19.794  44.931  0.00  0.00    -0.242 NA
ATOM      8  C   UNL d   1      46.549 -19.535  44.087  0.00  0.00     0.006 A 
ATOM      9  C   UNL d   1      46.560 -18.730  43.984  0.00  0.00     0.037 A 
ATOM     10  C   UNL d   1      46.635 -19.901  41.235  0.00  0.00     0.006 A 
ATOM     11  C   UNL d   1      46.646 -19.096  41.132  0.00  0.00     0.061 A 
ATOM     12  O   UNL d   1      46.640 -17.785  41.695  0.00  0.00    -0.267 OA
ATOM     13  C   UNL d   1      46.538 -20.324  44.194  0.00  0.00     0.100 A 
ATOM     14  C   UNL d   1      46.533 -18.988  44.764  0.00  0.00     0.100 A 
ENDROOT
TORSDOF 0
ENDMDL
