MODEL 1
REMARK VINA RESULT:      -1.5      0.000      0.000
REMARK  4 active torsions:
REMARK  status: ('A' for Active; 'I' for Inactive)
REMARK    1  A    between atoms: C_6  and  C_1 
REMARK    2  A    between atoms: S_7  and  C_3 
REMARK    3  A    between atoms: C_17  and  S_7 
REMARK    4  A    between atoms: C_18  and  C_17 
ROOT
ATOM      1  C   UNL d   1     -41.746-122.534 -52.915  0.00  0.00     0.087 A 
ATOM      2  N   UNL d   1     -41.973-123.265 -52.598  0.00  0.00    -0.245 NA
ATOM      3  C   UNL d   1     -41.425-122.075 -52.305  0.00  0.00     0.049 A 
ATOM      4  C   UNL d   1     -41.449-122.514 -51.608  0.00  0.00     0.025 A 
ATOM      5  C   UNL d   1     -41.789-123.252 -51.792  0.00  0.00     0.082 A 
ATOM      6  C   UNL d   1     -41.213-122.350 -50.843  0.00  0.00     0.002 A 
ATOM      7  C   UNL d   1     -41.887-123.817 -51.199  0.00  0.00     0.019 A 
ATOM      8  C   UNL d   1     -41.312-122.916 -50.250  0.00  0.00     0.000 A 
ATOM      9  C   UNL d   1     -41.648-123.646 -50.429  0.00  0.00     0.002 A 
ENDROOT
BRANCH   1  10
ATOM     10  C   UNL d   1     -41.844-122.346 -53.700  0.00  0.00     0.018 A 
ATOM     11  C   UNL d   1     -42.473-121.851 -53.931  0.00  0.00     0.004 A 
ATOM     12  C   UNL d   1     -42.571-121.661 -54.727  0.00  0.00     0.030 A 
ATOM     13  C   UNL d   1     -42.050-121.959 -55.296  0.00  0.00     0.140 A 
ATOM     14  C   UNL d   1     -41.423-122.453 -55.070  0.00  0.00     0.030 A 
ATOM     15  F   UNL d   1     -42.144-121.772 -56.101  0.00  0.00    -0.204 F 
ATOM     16  C   UNL d   1     -41.325-122.642 -54.274  0.00  0.00     0.004 A 
ENDBRANCH   1  10
BRANCH   3  17
ATOM     17  S   UNL d   1     -41.131-121.309 -52.380  0.00  0.00    -0.083 SA
BRANCH  17  18
ATOM     18  C   UNL d   1     -41.166-120.794 -51.720  0.00  0.00     0.058 C 
BRANCH  18  19
ATOM     19  C   UNL d   1     -41.170-119.972 -51.855  0.00  0.00     0.129 C 
ATOM     20  N   UNL d   1     -41.123-119.470 -51.214  0.00  0.00    -0.146 N 
ENDBRANCH  18  19
ENDBRANCH  17  18
ENDBRANCH   3  17
TORSDOF 4
ENDMDL
MODEL 2
REMARK VINA RESULT:      -0.7      2.217      3.297
REMARK  4 active torsions:
REMARK  status: ('A' for Active; 'I' for Inactive)
REMARK    1  A    between atoms: C_6  and  C_1 
REMARK    2  A    between atoms: S_7  and  C_3 
REMARK    3  A    between atoms: C_17  and  S_7 
REMARK    4  A    between atoms: C_18  and  C_17 
ROOT
ATOM      1  C   UNL d   1     -41.613-123.167 -50.031  0.00  0.00     0.087 A 
ATOM      2  N   UNL d   1     -41.123-123.605 -49.527  0.00  0.00    -0.245 NA
ATOM      3  C   UNL d   1     -42.200-122.807 -49.573  0.00  0.00     0.049 A 
ATOM      4  C   UNL d   1     -42.082-123.017 -48.785  0.00  0.00     0.025 A 
ATOM      5  C   UNL d   1     -41.413-123.512 -48.758  0.00  0.00     0.082 A 
ATOM      6  C   UNL d   1     -42.482-122.831 -48.097  0.00  0.00     0.002 A 
ATOM      7  C   UNL d   1     -41.154-123.814 -48.035  0.00  0.00     0.019 A 
ATOM      8  C   UNL d   1     -42.223-123.134 -47.374  0.00  0.00     0.000 A 
ATOM      9  C   UNL d   1     -41.562-123.623 -47.345  0.00  0.00     0.002 A 
ENDROOT
BRANCH   1  10
ATOM     10  C   UNL d   1     -41.494-123.129 -50.834  0.00  0.00     0.018 A 
ATOM     11  C   UNL d   1     -41.243-122.413 -51.181  0.00  0.00     0.004 A 
ATOM     12  C   UNL d   1     -41.123-122.375 -51.995  0.00  0.00     0.030 A 
ATOM     13  C   UNL d   1     -41.250-123.041 -52.469  0.00  0.00     0.140 A 
ATOM     14  C   UNL d   1     -41.500-123.755 -52.128  0.00  0.00     0.030 A 
ATOM     15  F   UNL d   1     -41.131-123.009 -53.292  0.00  0.00    -0.204 F 
ATOM     16  C   UNL d   1     -41.620-123.792 -51.313  0.00  0.00     0.004 A 
ENDBRANCH   1  10
BRANCH   3  17
ATOM     17  S   UNL d   1     -42.803-122.321 -49.855  0.00  0.00    -0.083 SA
BRANCH  17  18
ATOM     18  C   UNL d   1     -43.600-122.547 -49.728  0.00  0.00     0.058 C 
BRANCH  18  19
ATOM     19  C   UNL d   1     -44.203-122.106 -50.096  0.00  0.00     0.129 C 
ATOM     20  N   UNL d   1     -44.878-122.494 -50.341  0.00  0.00    -0.146 N 
ENDBRANCH  18  19
ENDBRANCH  17  18
ENDBRANCH   3  17
TORSDOF 4
ENDMDL
