MODEL 1
REMARK VINA RESULT:      10.4      0.000      0.000
REMARK  5 active torsions:
REMARK  status: ('A' for Active; 'I' for Inactive)
REMARK    1  A    between atoms: C_3  and  S_1 
REMARK    2  A    between atoms: C_7  and  S_1 
REMARK    3  A    between atoms: C_2  and  C_3 
REMARK    4  A    between atoms: C_9  and  C_3 
REMARK    5  A    between atoms: N_8  and  C_4 
ROOT
ATOM      1  C   UNL d   1      32.134  17.266 -23.449  0.00  0.00     0.128 A 
ATOM      2  C   UNL d   1      32.420  17.894 -23.011  0.00  0.00     0.166 A 
ATOM      3  N   UNL d   1      32.190  16.492 -23.160  0.00  0.00    -0.240 NA
ATOM      4  N   UNL d   1      32.771  17.755 -22.269  0.00  0.00    -0.225 NA
ATOM      5  C   UNL d   1      32.537  16.360 -22.427  0.00  0.00     0.099 A 
ATOM      6  C   UNL d   1      32.824  16.986 -21.986  0.00  0.00     0.101 A 
ATOM      7  C   UNL d   1      33.172  16.840 -21.247  0.00  0.00     0.021 A 
ATOM      8  C   UNL d   1      32.591  15.591 -22.144  0.00  0.00     0.021 A 
ATOM      9  C   UNL d   1      33.229  16.077 -20.960  0.00  0.00     0.002 A 
ATOM     10  C   UNL d   1      32.937  15.454 -21.410  0.00  0.00     0.002 A 
ENDROOT
BRANCH   1  11
ATOM     11  C   UNL d   1      31.787  17.397 -24.182  0.00  0.00     0.129 C 
BRANCH  11  12
ATOM     12  S   UNL d   1      31.087  16.888 -24.420  0.00  0.00     0.213 S 
ATOM     13  O   UNL d   1      31.234  16.251 -25.016  0.00  0.00    -0.217 OA
ATOM     14  O   UNL d   1      31.739  16.605 -24.856  0.00  0.00    -0.217 OA
BRANCH  12  15
ATOM     15  C   UNL d   1      30.292  16.887 -24.188  0.00  0.00     0.088 A 
ATOM     16  C   UNL d   1      29.770  17.443 -24.523  0.00  0.00     0.011 A 
ATOM     17  C   UNL d   1      28.971  17.448 -24.296  0.00  0.00     0.001 A 
ATOM     18  C   UNL d   1      30.042  17.985 -25.077  0.00  0.00     0.001 C 
ATOM     19  C   UNL d   1      28.700  16.898 -23.735  0.00  0.00     0.000 A 
ATOM     20  C   UNL d   1      29.228  16.346 -23.404  0.00  0.00     0.001 A 
ATOM     21  C   UNL d   1      30.020  16.345 -23.634  0.00  0.00     0.011 A 
ATOM     22  C   UNL d   1      28.955  15.804 -22.850  0.00  0.00     0.000 C 
ENDBRANCH  12  15
ENDBRANCH  11  12
BRANCH  11  23
ATOM     23  C   UNL d   1      31.991  17.971 -24.795  0.00  0.00     0.135 C 
ATOM     24  N   UNL d   1      32.805  18.187 -25.096  0.00  0.00    -0.146 N 
ENDBRANCH  11  23
ENDBRANCH   1  11
BRANCH   2  25
ATOM     25  N   UNL d   1      32.363  18.672 -23.303  0.00  0.00    -0.284 N 
ATOM     26  C   UNL d   1      33.000  19.009 -23.723  0.00  0.00     0.108 A 
ATOM     27  C   UNL d   1      32.937  19.782 -24.011  0.00  0.00     0.142 A 
ATOM     28  O   UNL d   1      32.248  20.227 -23.888  0.00  0.00    -0.300 OA
ATOM     29  C   UNL d   1      31.611  19.891 -23.468  0.00  0.00     0.142 A 
ATOM     30  C   UNL d   1      31.662  19.109 -23.171  0.00  0.00     0.108 A 
ENDBRANCH   2  25
TORSDOF 5
ENDMDL
MODEL 2
REMARK VINA RESULT:      10.9      2.658      4.196
REMARK  5 active torsions:
REMARK  status: ('A' for Active; 'I' for Inactive)
REMARK    1  A    between atoms: C_3  and  S_1 
REMARK    2  A    between atoms: C_7  and  S_1 
REMARK    3  A    between atoms: C_2  and  C_3 
REMARK    4  A    between atoms: C_9  and  C_3 
REMARK    5  A    between atoms: N_8  and  C_4 
ROOT
ATOM      1  C   UNL d   1      32.492  21.295 -22.585  0.00  0.00     0.128 A 
ATOM      2  C   UNL d   1      32.407  22.104 -22.675  0.00  0.00     0.166 A 
ATOM      3  N   UNL d   1      32.448  20.949 -21.834  0.00  0.00    -0.240 NA
ATOM      4  N   UNL d   1      32.275  22.583 -22.008  0.00  0.00    -0.225 NA
ATOM      5  C   UNL d   1      32.317  21.427 -21.178  0.00  0.00     0.099 A 
ATOM      6  C   UNL d   1      32.231  22.236 -21.264  0.00  0.00     0.101 A 
ATOM      7  C   UNL d   1      32.100  22.707 -20.595  0.00  0.00     0.021 A 
ATOM      8  C   UNL d   1      32.274  21.080 -20.434  0.00  0.00     0.021 A 
ATOM      9  C   UNL d   1      32.055  22.368 -19.852  0.00  0.00     0.002 A 
ATOM     10  C   UNL d   1      32.143  21.554 -19.775  0.00  0.00     0.002 A 
ENDROOT
BRANCH   1  11
ATOM     11  C   UNL d   1      32.623  20.817 -23.241  0.00  0.00     0.129 C 
BRANCH  11  12
ATOM     12  S   UNL d   1      32.569  19.928 -23.137  0.00  0.00     0.213 S 
ATOM     13  O   UNL d   1      33.130  19.551 -22.565  0.00  0.00    -0.217 OA
ATOM     14  O   UNL d   1      33.179  20.184 -22.630  0.00  0.00    -0.217 OA
BRANCH  12  15
ATOM     15  C   UNL d   1      32.079  19.353 -23.480  0.00  0.00     0.088 A 
ATOM     16  C   UNL d   1      32.424  18.733 -23.915  0.00  0.00     0.011 A 
ATOM     17  C   UNL d   1      31.941  18.153 -24.262  0.00  0.00     0.001 A 
ATOM     18  C   UNL d   1      33.240  18.692 -24.002  0.00  0.00     0.001 C 
ATOM     19  C   UNL d   1      31.116  18.199 -24.171  0.00  0.00     0.000 A 
ATOM     20  C   UNL d   1      30.779  18.822 -23.734  0.00  0.00     0.001 A 
ATOM     21  C   UNL d   1      31.264  19.394 -23.392  0.00  0.00     0.011 A 
ATOM     22  C   UNL d   1      29.963  18.862 -23.647  0.00  0.00     0.000 C 
ENDBRANCH  12  15
ENDBRANCH  11  12
BRANCH  11  23
ATOM     23  C   UNL d   1      32.814  21.035 -24.054  0.00  0.00     0.135 C 
ATOM     24  N   UNL d   1      33.239  20.543 -24.669  0.00  0.00    -0.146 N 
ENDBRANCH  11  23
ENDBRANCH   1  11
BRANCH   2  25
ATOM     25  N   UNL d   1      32.452  22.449 -23.432  0.00  0.00    -0.284 N 
ATOM     26  C   UNL d   1      31.754  22.669 -23.833  0.00  0.00     0.108 A 
ATOM     27  C   UNL d   1      31.806  23.012 -24.585  0.00  0.00     0.142 A 
ATOM     28  O   UNL d   1      32.541  23.141 -24.944  0.00  0.00    -0.300 OA
ATOM     29  C   UNL d   1      33.239  22.921 -24.543  0.00  0.00     0.142 A 
ATOM     30  C   UNL d   1      33.202  22.573 -23.782  0.00  0.00     0.108 A 
ENDBRANCH   2  25
TORSDOF 5
ENDMDL
