MODEL 1
REMARK VINA RESULT:     165.5      0.000      0.000
REMARK  6 active torsions:
REMARK  status: ('A' for Active; 'I' for Inactive)
REMARK    1  A    between atoms: C_10  and  N_4 
REMARK    2  A    between atoms: C_12  and  C_9 
REMARK    3  A    between atoms: C_15  and  C_10 
REMARK    4  A    between atoms: C_17  and  N_11 
REMARK    5  A    between atoms: N_13  and  C_12 
REMARK    6  A    between atoms: O_30  and  C_27 
ROOT
ATOM      1  C   UNL d   1      58.437  48.262  50.954  0.00  0.00     0.157 A 
ATOM      2  C   UNL d   1      58.251  47.505  50.690  0.00  0.00     0.174 A 
ATOM      3  N   UNL d   1      57.461  47.307  50.538  0.00  0.00    -0.240 N 
ATOM      4  N   UNL d   1      59.253  48.306  51.060  0.00  0.00    -0.283 N 
ATOM      5  N   UNL d   1      57.060  48.623  50.914  0.00  0.00    -0.223 N 
ATOM      6  C   UNL d   1      56.869  47.863  50.649  0.00  0.00     0.343 A 
ATOM      7  C   UNL d   1      57.845  48.834  51.070  0.00  0.00     0.287 A 
ATOM      8  N   UNL d   1      58.952  47.077  50.632  0.00  0.00    -0.207 NA
ATOM      9  C   UNL d   1      59.572  47.573  50.860  0.00  0.00     0.167 A 
ATOM     10  O   UNL d   1      56.079  47.664  50.496  0.00  0.00    -0.245 OA
ATOM     11  O   UNL d   1      58.034  49.586  51.332  0.00  0.00    -0.265 OA
ATOM     12  C   UNL d   1      57.270  46.548  50.273  0.00  0.00     0.105 C 
ATOM     13  C   UNL d   1      56.461  49.184  51.026  0.00  0.00     0.107 C 
ENDROOT
BRANCH   9  14
ATOM     14  C   UNL d   1      60.373  47.367  50.885  0.00  0.00     0.118 C 
BRANCH  14  15
ATOM     15  N   UNL d   1      60.593  46.580  50.915  0.00  0.00    -0.297 N 
ATOM     16  C   UNL d   1      60.024  45.983  50.878  0.00  0.00     0.100 A 
ATOM     17  C   UNL d   1      60.238  45.185  50.908  0.00  0.00     0.100 A 
ATOM     18  N   UNL d   1      61.040  44.979  50.977  0.00  0.00    -0.301 N 
ATOM     19  C   UNL d   1      61.617  45.575  51.015  0.00  0.00     0.100 A 
ATOM     20  C   UNL d   1      61.390  46.372  50.984  0.00  0.00     0.100 A 
BRANCH  18  21
ATOM     21  C   UNL d   1      61.258  44.184  51.008  0.00  0.00     0.064 A 
ATOM     22  C   UNL d   1      62.036  43.973  50.869  0.00  0.00     0.020 A 
ATOM     23  C   UNL d   1      62.260  43.172  50.899  0.00  0.00     0.026 A 
ATOM     24  C   UNL d   1      61.694  42.594  51.069  0.00  0.00     0.094 A 
ATOM     25  C   UNL d   1      60.907  42.819  51.207  0.00  0.00     0.026 A 
ATOM     26  C   UNL d   1      60.689  43.614  51.177  0.00  0.00     0.020 A 
BRANCH  24  27
ATOM     27  O   UNL d   1      61.900  41.800  51.101  0.00  0.00    -0.328 OA
ATOM     28  C   UNL d   1      62.597  41.550  50.735  0.00  0.00     0.181 C 
ENDBRANCH  24  27
ENDBRANCH  18  21
ENDBRANCH  14  15
ENDBRANCH   9  14
BRANCH   4  29
ATOM     29  C   UNL d   1      59.677  48.968  51.319  0.00  0.00     0.082 C 
BRANCH  29  30
ATOM     30  C   UNL d   1      60.359  49.187  50.929  0.00  0.00     0.018 A 
ATOM     31  C   UNL d   1      60.984  49.483  51.363  0.00  0.00     0.001 A 
ATOM     32  C   UNL d   1      60.939  49.564  52.180  0.00  0.00     0.000 C 
ATOM     33  C   UNL d   1      61.684  49.708  50.968  0.00  0.00     0.000 A 
ATOM     34  C   UNL d   1      61.742  49.631  50.149  0.00  0.00     0.000 A 
ATOM     35  C   UNL d   1      61.111  49.333  49.719  0.00  0.00     0.000 A 
ATOM     36  C   UNL d   1      60.419  49.110  50.106  0.00  0.00     0.002 A 
ENDBRANCH  29  30
ENDBRANCH   4  29
TORSDOF 6
ENDMDL
MODEL 2
REMARK VINA RESULT:     166.3      1.647      2.123
REMARK  6 active torsions:
REMARK  status: ('A' for Active; 'I' for Inactive)
REMARK    1  A    between atoms: C_10  and  N_4 
REMARK    2  A    between atoms: C_12  and  C_9 
REMARK    3  A    between atoms: C_15  and  C_10 
REMARK    4  A    between atoms: C_17  and  N_11 
REMARK    5  A    between atoms: N_13  and  C_12 
REMARK    6  A    between atoms: O_30  and  C_27 
ROOT
ATOM      1  C   UNL d   1      59.584  48.738  50.704  0.00  0.00     0.157 A 
ATOM      2  C   UNL d   1      59.495  48.961  49.916  0.00  0.00     0.174 A 
ATOM      3  N   UNL d   1      58.776  49.282  49.660  0.00  0.00    -0.240 N 
ATOM      4  N   UNL d   1      60.345  48.440  50.805  0.00  0.00    -0.283 N 
ATOM      5  N   UNL d   1      58.249  49.152  50.978  0.00  0.00    -0.223 N 
ATOM      6  C   UNL d   1      58.156  49.377  50.187  0.00  0.00     0.343 A 
ATOM      7  C   UNL d   1      58.962  48.830  51.248  0.00  0.00     0.287 A 
ATOM      8  N   UNL d   1      60.203  48.801  49.526  0.00  0.00    -0.207 NA
ATOM      9  C   UNL d   1      60.728  48.478  50.076  0.00  0.00     0.167 A 
ATOM     10  O   UNL d   1      57.437  49.699  49.930  0.00  0.00    -0.245 OA
ATOM     11  O   UNL d   1      59.053  48.608  52.030  0.00  0.00    -0.265 OA
ATOM     12  C   UNL d   1      58.684  49.507  48.869  0.00  0.00     0.105 C 
ATOM     13  C   UNL d   1      57.622  49.249  51.511  0.00  0.00     0.107 C 
ENDROOT
BRANCH   9  14
ATOM     14  C   UNL d   1      61.504  48.237  49.921  0.00  0.00     0.118 C 
BRANCH  14  15
ATOM     15  N   UNL d   1      61.667  47.447  49.783  0.00  0.00    -0.297 N 
ATOM     16  C   UNL d   1      62.289  47.227  49.286  0.00  0.00     0.100 A 
ATOM     17  C   UNL d   1      62.460  46.431  49.142  0.00  0.00     0.100 A 
ATOM     18  N   UNL d   1      61.999  45.841  49.502  0.00  0.00    -0.301 N 
ATOM     19  C   UNL d   1      61.372  46.056  50.002  0.00  0.00     0.100 A 
ATOM     20  C   UNL d   1      61.210  46.858  50.140  0.00  0.00     0.100 A 
BRANCH  18  21
ATOM     21  C   UNL d   1      62.166  45.046  49.361  0.00  0.00     0.064 A 
ATOM     22  C   UNL d   1      62.926  44.766  49.476  0.00  0.00     0.020 A 
ATOM     23  C   UNL d   1      63.099  43.965  49.334  0.00  0.00     0.026 A 
ATOM     24  C   UNL d   1      62.501  43.455  49.077  0.00  0.00     0.094 A 
ATOM     25  C   UNL d   1      61.733  43.750  48.964  0.00  0.00     0.026 A 
ATOM     26  C   UNL d   1      61.565  44.545  49.105  0.00  0.00     0.020 A 
BRANCH  24  27
ATOM     27  O   UNL d   1      62.656  42.662  48.933  0.00  0.00    -0.328 OA
ATOM     28  C   UNL d   1      62.953  42.193  49.545  0.00  0.00     0.181 C 
ENDBRANCH  24  27
ENDBRANCH  18  21
ENDBRANCH  14  15
ENDBRANCH   9  14
BRANCH   4  29
ATOM     29  C   UNL d   1      60.667  48.152  51.511  0.00  0.00     0.082 C 
BRANCH  29  30
ATOM     30  C   UNL d   1      60.804  48.666  52.129  0.00  0.00     0.018 A 
ATOM     31  C   UNL d   1      61.550  48.986  52.219  0.00  0.00     0.001 A 
ATOM     32  C   UNL d   1      62.161  48.800  51.701  0.00  0.00     0.000 C 
ATOM     33  C   UNL d   1      61.694  49.513  52.849  0.00  0.00     0.000 A 
ATOM     34  C   UNL d   1      61.090  49.708  53.375  0.00  0.00     0.000 A 
ATOM     35  C   UNL d   1      60.342  49.383  53.280  0.00  0.00     0.000 A 
ATOM     36  C   UNL d   1      60.197  48.863  52.658  0.00  0.00     0.002 A 
ENDBRANCH  29  30
ENDBRANCH   4  29
TORSDOF 6
ENDMDL
