MODEL 1
REMARK VINA RESULT:      -7.1      0.000      0.000
REMARK  6 active torsions:
REMARK  status: ('A' for Active; 'I' for Inactive)
REMARK    1  A    between atoms: C_9  and  C_2 
REMARK    2  A    between atoms: N_12  and  C_6 
REMARK    3  A    between atoms: N_11  and  C_20 
REMARK    4  A    between atoms: C_19  and  N_12 
REMARK    5  A    between atoms: O_21  and  C_16 
REMARK    6  A    between atoms: C_20  and  C_19 
ROOT
ATOM      1  C   UNL d   1     -46.669  13.074  22.825  0.00  0.00     0.060 A 
ATOM      2  C   UNL d   1     -46.913  12.304  22.882  0.00  0.00     0.011 A 
ATOM      3  C   UNL d   1     -46.226  11.807  22.882  0.00  0.00     0.037 A 
ATOM      4  C   UNL d   1     -45.822  13.083  22.789  0.00  0.00     0.116 A 
ATOM      5  S   UNL d   1     -45.555  12.290  22.825  0.00  0.00    -0.067 SA
ATOM      6  C   UNL d   1     -47.074  13.783  22.800  0.00  0.00     0.166 A 
ATOM      7  N   UNL d   1     -45.404  13.798  22.728  0.00  0.00    -0.217 NA
ATOM      8  N   UNL d   1     -46.664  14.478  22.740  0.00  0.00    -0.205 NA
ATOM      9  C   UNL d   1     -45.809  14.492  22.703  0.00  0.00     0.201 A 
ENDROOT
BRANCH   6  10
ATOM     10  N   UNL d   1     -47.903  13.804  22.833  0.00  0.00    -0.224 NA
BRANCH  10  11
ATOM     11  C   UNL d   1     -48.302  14.495  22.628  0.00  0.00     0.120 C 
BRANCH  11  12
ATOM     12  C   UNL d   1     -48.753  14.908  23.198  0.00  0.00     0.101 C 
BRANCH  12  13
ATOM     13  N   UNL d   1     -49.540  15.120  23.027  0.00  0.00    -0.298 N 
ATOM     14  C   UNL d   1     -49.737  15.307  22.281  0.00  0.00     0.107 A 
ATOM     15  C   UNL d   1     -50.527  15.517  22.124  0.00  0.00     0.142 A 
ATOM     16  O   UNL d   1     -51.064  15.526  22.716  0.00  0.00    -0.300 OA
ATOM     17  C   UNL d   1     -50.866  15.341  23.457  0.00  0.00     0.142 A 
ATOM     18  C   UNL d   1     -50.099  15.131  23.639  0.00  0.00     0.107 A 
ENDBRANCH  12  13
ENDBRANCH  11  12
ENDBRANCH  10  11
ENDBRANCH   6  10
BRANCH   2  19
ATOM     19  C   UNL d   1     -47.684  12.091  22.927  0.00  0.00     0.001 A 
ATOM     20  C   UNL d   1     -48.075  12.054  23.648  0.00  0.00     0.002 A 
ATOM     21  C   UNL d   1     -48.865  11.836  23.697  0.00  0.00     0.024 A 
ATOM     22  C   UNL d   1     -49.292  11.646  23.018  0.00  0.00     0.094 A 
ATOM     23  C   UNL d   1     -48.880  11.687  22.280  0.00  0.00     0.024 A 
ATOM     24  C   UNL d   1     -48.093  11.905  22.234  0.00  0.00     0.002 A 
BRANCH  22  25
ATOM     25  O   UNL d   1     -49.961  11.455  22.993  0.00  0.00    -0.328 OA
ATOM     26  C   UNL d   1     -50.439  11.414  23.688  0.00  0.00     0.181 C 
ENDBRANCH  22  25
ENDBRANCH   2  19
TORSDOF 6
ENDMDL
MODEL 2
REMARK VINA RESULT:      -6.1      1.837      3.718
REMARK  6 active torsions:
REMARK  status: ('A' for Active; 'I' for Inactive)
REMARK    1  A    between atoms: C_9  and  C_2 
REMARK    2  A    between atoms: N_12  and  C_6 
REMARK    3  A    between atoms: N_11  and  C_20 
REMARK    4  A    between atoms: C_19  and  N_12 
REMARK    5  A    between atoms: O_21  and  C_16 
REMARK    6  A    between atoms: C_20  and  C_19 
ROOT
ATOM      1  C   UNL d   1     -49.750  14.350  22.884  0.00  0.00     0.060 A 
ATOM      2  C   UNL d   1     -50.186  13.668  22.892  0.00  0.00     0.011 A 
ATOM      3  C   UNL d   1     -51.007  13.878  22.859  0.00  0.00     0.037 A 
ATOM      4  C   UNL d   1     -50.284  15.007  22.846  0.00  0.00     0.116 A 
ATOM      5  S   UNL d   1     -51.064  14.704  22.831  0.00  0.00    -0.067 SA
ATOM      6  C   UNL d   1     -48.946  14.494  22.904  0.00  0.00     0.166 A 
ATOM      7  N   UNL d   1     -50.001  15.788  22.829  0.00  0.00    -0.217 NA
ATOM      8  N   UNL d   1     -48.673  15.255  22.888  0.00  0.00    -0.205 NA
ATOM      9  C   UNL d   1     -49.209  15.922  22.850  0.00  0.00     0.201 A 
ENDROOT
BRANCH   6  10
ATOM     10  N   UNL d   1     -48.400  13.870  22.942  0.00  0.00    -0.224 NA
BRANCH  10  11
ATOM     11  C   UNL d   1     -47.623  13.992  22.698  0.00  0.00     0.120 C 
BRANCH  11  12
ATOM     12  C   UNL d   1     -46.985  13.805  23.205  0.00  0.00     0.101 C 
BRANCH  12  13
ATOM     13  N   UNL d   1     -46.254  13.573  22.881  0.00  0.00    -0.298 N 
ATOM     14  C   UNL d   1     -45.820  14.108  22.487  0.00  0.00     0.107 A 
ATOM     15  C   UNL d   1     -45.090  13.863  22.167  0.00  0.00     0.142 A 
ATOM     16  O   UNL d   1     -44.846  13.108  22.261  0.00  0.00    -0.300 OA
ATOM     17  C   UNL d   1     -45.279  12.579  22.653  0.00  0.00     0.142 A 
ATOM     18  C   UNL d   1     -45.998  12.791  22.976  0.00  0.00     0.107 A 
ENDBRANCH  12  13
ENDBRANCH  11  12
ENDBRANCH  10  11
ENDBRANCH   6  10
BRANCH   2  19
ATOM     19  C   UNL d   1     -49.857  12.938  22.926  0.00  0.00     0.001 A 
ATOM     20  C   UNL d   1     -49.657  12.528  22.243  0.00  0.00     0.002 A 
ATOM     21  C   UNL d   1     -49.320  11.780  22.276  0.00  0.00     0.024 A 
ATOM     22  C   UNL d   1     -49.172  11.416  23.001  0.00  0.00     0.094 A 
ATOM     23  C   UNL d   1     -49.382  11.847  23.697  0.00  0.00     0.024 A 
ATOM     24  C   UNL d   1     -49.718  12.592  23.663  0.00  0.00     0.002 A 
BRANCH  22  25
ATOM     25  O   UNL d   1     -48.890  10.787  23.095  0.00  0.00    -0.328 OA
ATOM     26  C   UNL d   1     -48.292  10.649  23.676  0.00  0.00     0.181 C 
ENDBRANCH  22  25
ENDBRANCH   2  19
TORSDOF 6
ENDMDL
MODEL 3
REMARK VINA RESULT:      -6.0      2.054      4.327
REMARK  6 active torsions:
REMARK  status: ('A' for Active; 'I' for Inactive)
REMARK    1  A    between atoms: C_9  and  C_2 
REMARK    2  A    between atoms: N_12  and  C_6 
REMARK    3  A    between atoms: N_11  and  C_20 
REMARK    4  A    between atoms: C_19  and  N_12 
REMARK    5  A    between atoms: O_21  and  C_16 
REMARK    6  A    between atoms: C_20  and  C_19 
ROOT
ATOM      1  C   UNL d   1     -49.727  12.573  23.297  0.00  0.00     0.060 A 
ATOM      2  C   UNL d   1     -50.108  13.268  23.131  0.00  0.00     0.011 A 
ATOM      3  C   UNL d   1     -50.941  13.142  23.217  0.00  0.00     0.037 A 
ATOM      4  C   UNL d   1     -50.312  11.990  23.492  0.00  0.00     0.116 A 
ATOM      5  S   UNL d   1     -51.064  12.353  23.439  0.00  0.00    -0.067 SA
ATOM      6  C   UNL d   1     -48.938  12.362  23.307  0.00  0.00     0.166 A 
ATOM      7  N   UNL d   1     -50.091  11.215  23.691  0.00  0.00    -0.217 NA
ATOM      8  N   UNL d   1     -48.727  11.606  23.500  0.00  0.00    -0.205 NA
ATOM      9  C   UNL d   1     -49.313  11.013  23.698  0.00  0.00     0.201 A 
ENDROOT
BRANCH   6  10
ATOM     10  N   UNL d   1     -48.345  12.912  23.120  0.00  0.00    -0.224 NA
BRANCH  10  11
ATOM     11  C   UNL d   1     -47.590  12.646  22.924  0.00  0.00     0.120 C 
BRANCH  11  12
ATOM     12  C   UNL d   1     -46.916  12.990  23.279  0.00  0.00     0.101 C 
BRANCH  12  13
ATOM     13  N   UNL d   1     -46.168  12.889  22.928  0.00  0.00    -0.298 N 
ATOM     14  C   UNL d   1     -45.743  12.241  23.101  0.00  0.00     0.107 A 
ATOM     15  C   UNL d   1     -44.997  12.152  22.743  0.00  0.00     0.142 A 
ATOM     16  O   UNL d   1     -44.726  12.711  22.238  0.00  0.00    -0.300 OA
ATOM     17  C   UNL d   1     -45.150  13.354  22.068  0.00  0.00     0.142 A 
ATOM     18  C   UNL d   1     -45.885  13.466  22.405  0.00  0.00     0.107 A 
ENDBRANCH  12  13
ENDBRANCH  11  12
ENDBRANCH  10  11
ENDBRANCH   6  10
BRANCH   2  19
ATOM     19  C   UNL d   1     -49.722  13.940  22.924  0.00  0.00     0.001 A 
ATOM     20  C   UNL d   1     -49.451  14.468  23.491  0.00  0.00     0.002 A 
ATOM     21  C   UNL d   1     -49.056  15.157  23.281  0.00  0.00     0.024 A 
ATOM     22  C   UNL d   1     -48.919  15.339  22.488  0.00  0.00     0.094 A 
ATOM     23  C   UNL d   1     -49.203  14.787  21.913  0.00  0.00     0.024 A 
ATOM     24  C   UNL d   1     -49.596  14.102  22.124  0.00  0.00     0.002 A 
BRANCH  22  25
ATOM     25  O   UNL d   1     -48.592  15.904  22.246  0.00  0.00    -0.328 OA
ATOM     26  C   UNL d   1     -48.017  15.855  21.629  0.00  0.00     0.181 C 
ENDBRANCH  22  25
ENDBRANCH   2  19
TORSDOF 6
ENDMDL
