MODEL 1
REMARK VINA RESULT:      -3.0      0.000      0.000
REMARK  3 active torsions:
REMARK  status: ('A' for Active; 'I' for Inactive)
REMARK    1  A    between atoms: S_2  and  C_1 
REMARK    2  A    between atoms: C_8  and  S_2 
REMARK    3  A    between atoms: C_20  and  C_13 
ROOT
ATOM      1  C   UNL d   1      32.664  21.839 -20.453  0.00  0.00     0.151 A 
ATOM      2  C   UNL d   1      32.285  22.540 -20.699  0.00  0.00     0.311 A 
ATOM      3  C   UNL d   1      32.925  21.773 -19.675  0.00  0.00     0.019 A 
ATOM      4  O   UNL d   1      32.175  23.160 -20.162  0.00  0.00    -0.273 OA
ATOM      5  C   UNL d   1      32.818  22.384 -19.139  0.00  0.00     0.024 A 
ATOM      6  C   UNL d   1      32.439  23.085 -19.386  0.00  0.00     0.103 A 
ATOM      7  O   UNL d   1      32.019  22.616 -21.483  0.00  0.00    -0.258 OA
ATOM      8  C   UNL d   1      33.078  22.315 -18.366  0.00  0.00     0.009 A 
ATOM      9  C   UNL d   1      32.329  23.702 -18.853  0.00  0.00     0.025 A 
ATOM     10  C   UNL d   1      32.972  22.929 -17.823  0.00  0.00     0.035 A 
ATOM     11  C   UNL d   1      32.593  23.630 -18.070  0.00  0.00     0.009 A 
ATOM     12 BR   UNL d   1      33.240  22.855 -17.034  0.00  0.00    -0.049 Br
ENDROOT
BRANCH   1  13
ATOM     13  S   UNL d   1      32.770  21.226 -20.995  0.00  0.00     0.215 S 
ATOM     14  O   UNL d   1      33.168  21.737 -21.510  0.00  0.00    -0.217 OA
ATOM     15  O   UNL d   1      32.370  20.707 -20.479  0.00  0.00    -0.217 OA
BRANCH  13  16
ATOM     16  C   UNL d   1      32.872  20.605 -21.532  0.00  0.00     0.088 A 
ATOM     17  C   UNL d   1      33.139  19.863 -21.269  0.00  0.00     0.011 A 
ATOM     18  C   UNL d   1      33.240  19.246 -21.806  0.00  0.00     0.001 A 
ATOM     19  C   UNL d   1      33.077  19.359 -22.606  0.00  0.00     0.000 A 
ATOM     20  C   UNL d   1      32.811  20.096 -22.869  0.00  0.00     0.001 A 
ATOM     21  C   UNL d   1      32.710  20.714 -22.333  0.00  0.00     0.011 A 
BRANCH  19  22
ATOM     22  C   UNL d   1      33.180  18.734 -23.144  0.00  0.00     0.000 C 
ATOM     23  C   UNL d   1      33.241  18.890 -23.942  0.00  0.00     0.000 C 
ATOM     24  C   UNL d   1      33.220  17.958 -22.866  0.00  0.00     0.000 C 
ENDBRANCH  19  22
ENDBRANCH  13  16
ENDBRANCH   1  13
TORSDOF 3
ENDMDL
MODEL 2
REMARK VINA RESULT:      -1.5      1.715      4.785
REMARK  3 active torsions:
REMARK  status: ('A' for Active; 'I' for Inactive)
REMARK    1  A    between atoms: S_2  and  C_1 
REMARK    2  A    between atoms: C_8  and  S_2 
REMARK    3  A    between atoms: C_20  and  C_13 
ROOT
ATOM      1  C   UNL d   1      32.637  21.534 -21.438  0.00  0.00     0.151 A 
ATOM      2  C   UNL d   1      32.555  21.983 -22.137  0.00  0.00     0.311 A 
ATOM      3  C   UNL d   1      32.741  20.720 -21.492  0.00  0.00     0.019 A 
ATOM      4  O   UNL d   1      32.580  21.607 -22.873  0.00  0.00    -0.273 OA
ATOM      5  C   UNL d   1      32.766  20.343 -22.219  0.00  0.00     0.024 A 
ATOM      6  C   UNL d   1      32.685  20.792 -22.917  0.00  0.00     0.103 A 
ATOM      7  O   UNL d   1      32.450  22.807 -22.092  0.00  0.00    -0.258 OA
ATOM      8  C   UNL d   1      32.870  19.533 -22.269  0.00  0.00     0.009 A 
ATOM      9  C   UNL d   1      32.709  20.420 -23.651  0.00  0.00     0.025 A 
ATOM     10  C   UNL d   1      32.896  19.149 -23.001  0.00  0.00     0.035 A 
ATOM     11  C   UNL d   1      32.814  19.598 -23.699  0.00  0.00     0.009 A 
ATOM     12 BR   UNL d   1      33.002  18.321 -23.048  0.00  0.00    -0.049 Br
ENDROOT
BRANCH   1  13
ATOM     13  S   UNL d   1      32.611  21.917 -20.707  0.00  0.00     0.215 S 
ATOM     14  O   UNL d   1      31.998  21.420 -20.458  0.00  0.00    -0.217 OA
ATOM     15  O   UNL d   1      33.229  22.420 -20.954  0.00  0.00    -0.217 OA
BRANCH  13  16
ATOM     16  C   UNL d   1      32.592  22.306 -19.977  0.00  0.00     0.088 A 
ATOM     17  C   UNL d   1      32.041  22.913 -19.840  0.00  0.00     0.011 A 
ATOM     18  C   UNL d   1      32.024  23.299 -19.113  0.00  0.00     0.001 A 
ATOM     19  C   UNL d   1      32.552  23.086 -18.515  0.00  0.00     0.000 A 
ATOM     20  C   UNL d   1      33.100  22.483 -18.650  0.00  0.00     0.001 A 
ATOM     21  C   UNL d   1      33.118  22.096 -19.377  0.00  0.00     0.011 A 
BRANCH  19  22
ATOM     22  C   UNL d   1      32.531  23.478 -17.783  0.00  0.00     0.000 C 
ATOM     23  C   UNL d   1      33.226  23.702 -17.422  0.00  0.00     0.000 C 
ATOM     24  C   UNL d   1      31.805  23.639 -17.426  0.00  0.00     0.000 C 
ENDBRANCH  19  22
ENDBRANCH  13  16
ENDBRANCH   1  13
TORSDOF 3
ENDMDL
MODEL 3
REMARK VINA RESULT:      -0.5      3.139      5.833
REMARK  3 active torsions:
REMARK  status: ('A' for Active; 'I' for Inactive)
REMARK    1  A    between atoms: S_2  and  C_1 
REMARK    2  A    between atoms: C_8  and  S_2 
REMARK    3  A    between atoms: C_20  and  C_13 
ROOT
ATOM      1  C   UNL d   1      32.243  18.451 -23.496  0.00  0.00     0.151 A 
ATOM      2  C   UNL d   1      32.632  18.394 -24.231  0.00  0.00     0.311 A 
ATOM      3  C   UNL d   1      31.680  17.886 -23.292  0.00  0.00     0.019 A 
ATOM      4  O   UNL d   1      32.450  17.774 -24.747  0.00  0.00    -0.273 OA
ATOM      5  C   UNL d   1      31.497  17.269 -23.800  0.00  0.00     0.024 A 
ATOM      6  C   UNL d   1      31.886  17.213 -24.535  0.00  0.00     0.103 A 
ATOM      7  O   UNL d   1      33.202  18.961 -24.445  0.00  0.00    -0.258 OA
ATOM      8  C   UNL d   1      30.936  16.709 -23.595  0.00  0.00     0.009 A 
ATOM      9  C   UNL d   1      31.707  16.597 -25.050  0.00  0.00     0.025 A 
ATOM     10  C   UNL d   1      30.749  16.086 -24.105  0.00  0.00     0.035 A 
ATOM     11  C   UNL d   1      31.138  16.029 -24.840  0.00  0.00     0.009 A 
ATOM     12 BR   UNL d   1      30.176  15.515 -23.891  0.00  0.00    -0.049 Br
ENDROOT
BRANCH   1  13
ATOM     13  S   UNL d   1      32.430  19.073 -22.986  0.00  0.00     0.215 S 
ATOM     14  O   UNL d   1      33.212  19.073 -23.258  0.00  0.00    -0.217 OA
ATOM     15  O   UNL d   1      31.644  19.077 -22.709  0.00  0.00    -0.217 OA
BRANCH  13  16
ATOM     16  C   UNL d   1      32.609  19.696 -22.472  0.00  0.00     0.088 A 
ATOM     17  C   UNL d   1      32.978  19.545 -21.743  0.00  0.00     0.011 A 
ATOM     18  C   UNL d   1      33.155  20.168 -21.233  0.00  0.00     0.001 A 
ATOM     19  C   UNL d   1      32.969  20.944 -21.441  0.00  0.00     0.000 A 
ATOM     20  C   UNL d   1      32.602  21.095 -22.167  0.00  0.00     0.001 A 
ATOM     21  C   UNL d   1      32.424  20.474 -22.677  0.00  0.00     0.011 A 
BRANCH  19  22
ATOM     22  C   UNL d   1      33.149  21.568 -20.924  0.00  0.00     0.000 C 
ATOM     23  C   UNL d   1      33.240  21.422 -20.127  0.00  0.00     0.000 C 
ATOM     24  C   UNL d   1      33.236  22.333 -21.220  0.00  0.00     0.000 C 
ENDBRANCH  19  22
ENDBRANCH  13  16
ENDBRANCH   1  13
TORSDOF 3
ENDMDL
