MODEL 1
REMARK VINA RESULT:      39.0      0.000      0.000
REMARK  6 active torsions:
REMARK  status: ('A' for Active; 'I' for Inactive)
REMARK    1  A    between atoms: C_6  and  N_2 
REMARK    2  A    between atoms: C_7  and  C_3 
REMARK    3  A    between atoms: C_8  and  C_6 
REMARK    4  A    between atoms: C_14  and  C_8 
REMARK    5  A    between atoms: C_9  and  O_12 
REMARK    6  A    between atoms: O_12  and  C_14 
ROOT
ATOM      1  N   UNL d   1     -52.242  25.429  33.324  0.00  0.00    -0.224 NA
ATOM      2  N   UNL d   1     -50.935  25.715  33.312  0.00  0.00    -0.286 N 
ATOM      3  C   UNL d   1     -51.697  26.064  33.320  0.00  0.00     0.191 A 
ATOM      4  C   UNL d   1     -51.013  24.901  33.312  0.00  0.00     0.083 A 
ATOM      5  C   UNL d   1     -51.858  24.716  33.320  0.00  0.00     0.099 A 
ATOM      6  C   UNL d   1     -50.454  24.309  33.306  0.00  0.00     0.019 A 
ATOM      7  C   UNL d   1     -52.050  23.904  33.321  0.00  0.00     0.021 A 
ATOM      8  C   UNL d   1     -50.715  23.542  33.308  0.00  0.00     0.002 A 
ATOM      9  C   UNL d   1     -51.504  23.369  33.315  0.00  0.00     0.002 A 
ENDROOT
BRANCH   2  10
ATOM     10  C   UNL d   1     -50.337  26.245  33.306  0.00  0.00     0.084 C 
BRANCH  10  11
ATOM     11  C   UNL d   1     -50.008  26.552  33.997  0.00  0.00     0.046 C 
BRANCH  11  12
ATOM     12  C   UNL d   1     -49.558  27.236  34.017  0.00  0.00     0.124 C 
BRANCH  12  13
ATOM     13  O   UNL d   1     -48.879  27.310  34.464  0.00  0.00    -0.305 OA
BRANCH  13  14
ATOM     14  C   UNL d   1     -48.575  28.036  34.711  0.00  0.00     0.100 A 
ATOM     15  C   UNL d   1     -48.943  28.760  34.564  0.00  0.00     0.025 A 
ATOM     16  C   UNL d   1     -48.639  29.483  34.811  0.00  0.00     0.002 A 
ATOM     17  C   UNL d   1     -47.916  29.486  35.234  0.00  0.00     0.000 A 
ATOM     18  C   UNL d   1     -47.524  28.765  35.396  0.00  0.00     0.002 A 
ATOM     19  C   UNL d   1     -47.852  28.039  35.135  0.00  0.00     0.025 A 
ENDBRANCH  13  14
ENDBRANCH  12  13
ENDBRANCH  11  12
ENDBRANCH  10  11
ENDBRANCH   2  10
BRANCH   3  20
ATOM     20  C   UNL d   1     -51.436  26.831  33.318  0.00  0.00     0.271 C 
ATOM     21  O   UNL d   1     -52.001  27.452  33.313  0.00  0.00    -0.280 OA
ENDBRANCH   3  20
TORSDOF 6
ENDMDL
MODEL 2
REMARK VINA RESULT:      41.5      1.132      1.838
REMARK  6 active torsions:
REMARK  status: ('A' for Active; 'I' for Inactive)
REMARK    1  A    between atoms: C_6  and  N_2 
REMARK    2  A    between atoms: C_7  and  C_3 
REMARK    3  A    between atoms: C_8  and  C_6 
REMARK    4  A    between atoms: C_14  and  C_8 
REMARK    5  A    between atoms: C_9  and  O_12 
REMARK    6  A    between atoms: O_12  and  C_14 
ROOT
ATOM      1  N   UNL d   1     -50.630  23.561  33.316  0.00  0.00    -0.224 NA
ATOM      2  N   UNL d   1     -50.834  24.883  33.309  0.00  0.00    -0.286 N 
ATOM      3  C   UNL d   1     -50.234  24.299  33.313  0.00  0.00     0.191 A 
ATOM      4  C   UNL d   1     -51.566  24.517  33.310  0.00  0.00     0.083 A 
ATOM      5  C   UNL d   1     -51.434  23.663  33.314  0.00  0.00     0.099 A 
ATOM      6  C   UNL d   1     -52.319  24.825  33.307  0.00  0.00     0.019 A 
ATOM      7  C   UNL d   1     -52.122  23.190  33.315  0.00  0.00     0.021 A 
ATOM      8  C   UNL d   1     -52.940  24.305  33.308  0.00  0.00     0.002 A 
ATOM      9  C   UNL d   1     -52.817  23.507  33.313  0.00  0.00     0.002 A 
ENDROOT
BRANCH   2  10
ATOM     10  C   UNL d   1     -50.556  25.632  33.306  0.00  0.00     0.084 C 
BRANCH  10  11
ATOM     11  C   UNL d   1     -51.050  26.291  33.337  0.00  0.00     0.046 C 
BRANCH  11  12
ATOM     12  C   UNL d   1     -50.775  27.061  33.385  0.00  0.00     0.124 C 
BRANCH  12  13
ATOM     13  O   UNL d   1     -50.463  27.382  34.068  0.00  0.00    -0.305 OA
BRANCH  13  14
ATOM     14  C   UNL d   1     -49.946  28.024  34.073  0.00  0.00     0.100 A 
ATOM     15  C   UNL d   1     -50.033  28.685  33.587  0.00  0.00     0.025 A 
ATOM     16  C   UNL d   1     -49.517  29.325  33.592  0.00  0.00     0.002 A 
ATOM     17  C   UNL d   1     -48.866  29.306  34.120  0.00  0.00     0.000 A 
ATOM     18  C   UNL d   1     -48.756  28.646  34.624  0.00  0.00     0.002 A 
ATOM     19  C   UNL d   1     -49.296  28.005  34.601  0.00  0.00     0.025 A 
ENDBRANCH  13  14
ENDBRANCH  12  13
ENDBRANCH  11  12
ENDBRANCH  10  11
ENDBRANCH   2  10
BRANCH   3  20
ATOM     20  C   UNL d   1     -49.613  24.819  33.312  0.00  0.00     0.271 C 
ATOM     21  O   UNL d   1     -48.869  24.563  33.606  0.00  0.00    -0.280 OA
ENDBRANCH   3  20
TORSDOF 6
ENDMDL
