MODEL 1
REMARK VINA RESULT:      -2.6      0.000      0.000
REMARK  3 active torsions:
REMARK  status: ('A' for Active; 'I' for Inactive)
REMARK    1  A    between atoms: C_6  and  N_1 
REMARK    2  A    between atoms: C_5  and  C_6 
REMARK       I    between atoms: N_10  and  C_5 
REMARK    3  A    between atoms: C_16  and  N_10 
ROOT
ATOM      1  C   UNL d   1      32.521  18.170 -23.704  0.00  0.00     0.297 C 
ATOM      2  N   UNL d   1      32.500  17.374 -23.901  0.00  0.00    -0.207 NA
ATOM      3  O   UNL d   1      31.818  18.610 -23.713  0.00  0.00    -0.264 OA
ENDROOT
BRANCH   1   4
ATOM      4  C   UNL d   1      33.231  18.531 -23.501  0.00  0.00     0.148 C 
BRANCH   4   5
ATOM      5  N   UNL d   1      33.234  19.310 -23.238  0.00  0.00    -0.235 N 
ATOM      6  C   UNL d   1      33.234  19.473 -22.434  0.00  0.00     0.273 A 
ATOM      7  C   UNL d   1      33.237  20.257 -22.170  0.00  0.00     0.086 A 
ATOM      8  O   UNL d   1      33.232  18.856 -21.881  0.00  0.00    -0.266 OA
ATOM      9  C   UNL d   1      33.237  20.443 -21.365  0.00  0.00     0.012 C 
ATOM     10  S   UNL d   1      33.239  20.865 -22.725  0.00  0.00    -0.077 SA
ATOM     11  C   UNL d   1      33.239  20.706 -23.528  0.00  0.00     0.097 A 
ATOM     12  C   UNL d   1      33.236  19.928 -23.792  0.00  0.00     0.274 A 
ATOM     13  O   UNL d   1      33.236  19.765 -24.604  0.00  0.00    -0.266 OA
ENDBRANCH   4   5
ENDBRANCH   1   4
BRANCH   2  14
ATOM     14  C   UNL d   1      31.793  17.012 -24.104  0.00  0.00     0.087 A 
ATOM     15  C   UNL d   1      31.370  16.622 -23.515  0.00  0.00     0.045 A 
ATOM     16  C   UNL d   1      30.660  16.252 -23.693  0.00  0.00     0.121 A 
ATOM     17  O   UNL d   1      30.124  15.828 -23.235  0.00  0.00    -0.299 OA
ATOM     18  C   UNL d   1      30.371  16.273 -24.467  0.00  0.00     0.119 A 
ATOM     19  C   UNL d   1      29.504  15.588 -23.726  0.00  0.00     0.304 A 
ATOM     20  O   UNL d   1      29.661  15.861 -24.474  0.00  0.00    -0.300 OA
ATOM     21  C   UNL d   1      30.792  16.662 -25.060  0.00  0.00     0.028 A 
ATOM     22  C   UNL d   1      31.509  17.037 -24.883  0.00  0.00     0.021 A 
ENDBRANCH   2  14
TORSDOF 3
ENDMDL
MODEL 2
REMARK VINA RESULT:      -2.6      2.007      4.742
REMARK  3 active torsions:
REMARK  status: ('A' for Active; 'I' for Inactive)
REMARK    1  A    between atoms: C_6  and  N_1 
REMARK    2  A    between atoms: C_5  and  C_6 
REMARK       I    between atoms: N_10  and  C_5 
REMARK    3  A    between atoms: C_16  and  N_10 
ROOT
ATOM      1  C   UNL d   1      32.845  19.717 -22.665  0.00  0.00     0.297 C 
ATOM      2  N   UNL d   1      33.241  20.372 -22.367  0.00  0.00    -0.207 NA
ATOM      3  O   UNL d   1      32.043  19.611 -22.484  0.00  0.00    -0.264 OA
ENDROOT
BRANCH   1   4
ATOM      4  C   UNL d   1      33.239  19.172 -23.137  0.00  0.00     0.148 C 
BRANCH   4   5
ATOM      5  N   UNL d   1      32.809  18.626 -23.577  0.00  0.00    -0.235 N 
ATOM      6  C   UNL d   1      32.641  17.886 -23.266  0.00  0.00     0.273 A 
ATOM      7  C   UNL d   1      32.208  17.338 -23.709  0.00  0.00     0.086 A 
ATOM      8  O   UNL d   1      32.903  17.681 -22.507  0.00  0.00    -0.266 OA
ATOM      9  C   UNL d   1      32.029  16.587 -23.414  0.00  0.00     0.012 C 
ATOM     10  S   UNL d   1      31.951  17.548 -24.462  0.00  0.00    -0.077 SA
ATOM     11  C   UNL d   1      32.117  18.286 -24.777  0.00  0.00     0.097 A 
ATOM     12  C   UNL d   1      32.547  18.831 -24.337  0.00  0.00     0.274 A 
ATOM     13  O   UNL d   1      32.715  19.579 -24.653  0.00  0.00    -0.266 OA
ENDBRANCH   4   5
ENDBRANCH   1   4
BRANCH   2  14
ATOM     14  C   UNL d   1      32.851  20.917 -21.896  0.00  0.00     0.087 A 
ATOM     15  C   UNL d   1      32.836  21.704 -22.139  0.00  0.00     0.045 A 
ATOM     16  C   UNL d   1      32.452  22.269 -21.684  0.00  0.00     0.121 A 
ATOM     17  O   UNL d   1      32.344  23.079 -21.779  0.00  0.00    -0.299 OA
ATOM     18  C   UNL d   1      32.080  22.044 -20.981  0.00  0.00     0.119 A 
ATOM     19  C   UNL d   1      31.906  23.354 -21.134  0.00  0.00     0.304 A 
ATOM     20  O   UNL d   1      31.749  22.720 -20.654  0.00  0.00    -0.300 OA
ATOM     21  C   UNL d   1      32.093  21.257 -20.734  0.00  0.00     0.028 A 
ATOM     22  C   UNL d   1      32.480  20.685 -21.191  0.00  0.00     0.021 A 
ENDBRANCH   2  14
TORSDOF 3
ENDMDL
MODEL 3
REMARK VINA RESULT:      -2.4      1.760      4.579
REMARK  3 active torsions:
REMARK  status: ('A' for Active; 'I' for Inactive)
REMARK    1  A    between atoms: C_6  and  N_1 
REMARK    2  A    between atoms: C_5  and  C_6 
REMARK       I    between atoms: N_10  and  C_5 
REMARK    3  A    between atoms: C_16  and  N_10 
ROOT
ATOM      1  C   UNL d   1      31.319  17.090 -24.310  0.00  0.00     0.297 C 
ATOM      2  N   UNL d   1      32.114  17.221 -24.151  0.00  0.00    -0.207 NA
ATOM      3  O   UNL d   1      30.804  17.737 -24.367  0.00  0.00    -0.264 OA
ENDROOT
BRANCH   1   4
ATOM      4  C   UNL d   1      31.035  16.325 -24.412  0.00  0.00     0.148 C 
BRANCH   4   5
ATOM      5  N   UNL d   1      30.353  16.086 -24.021  0.00  0.00    -0.235 N 
ATOM      6  C   UNL d   1      29.616  16.227 -24.352  0.00  0.00     0.273 A 
ATOM      7  C   UNL d   1      28.930  15.986 -23.957  0.00  0.00     0.086 A 
ATOM      8  O   UNL d   1      29.552  16.610 -25.084  0.00  0.00    -0.266 OA
ATOM      9  C   UNL d   1      28.179  16.118 -24.274  0.00  0.00     0.012 C 
ATOM     10  S   UNL d   1      29.001  15.606 -23.231  0.00  0.00    -0.077 SA
ATOM     11  C   UNL d   1      29.735  15.464 -22.896  0.00  0.00     0.097 A 
ATOM     12  C   UNL d   1      30.417  15.703 -23.288  0.00  0.00     0.274 A 
ATOM     13  O   UNL d   1      31.161  15.560 -22.950  0.00  0.00    -0.266 OA
ENDBRANCH   4   5
ENDBRANCH   1   4
BRANCH   2  14
ATOM     14  C   UNL d   1      32.399  17.982 -24.048  0.00  0.00     0.087 A 
ATOM     15  C   UNL d   1      32.513  18.258 -23.280  0.00  0.00     0.045 A 
ATOM     16  C   UNL d   1      32.797  19.016 -23.152  0.00  0.00     0.121 A 
ATOM     17  O   UNL d   1      32.965  19.438 -22.466  0.00  0.00    -0.299 OA
ATOM     18  C   UNL d   1      32.970  19.503 -23.797  0.00  0.00     0.119 A 
ATOM     19  C   UNL d   1      33.240  20.185 -22.688  0.00  0.00     0.304 A 
ATOM     20  O   UNL d   1      33.241  20.217 -23.498  0.00  0.00    -0.300 OA
ATOM     21  C   UNL d   1      32.858  19.231 -24.568  0.00  0.00     0.028 A 
ATOM     22  C   UNL d   1      32.570  18.465 -24.700  0.00  0.00     0.021 A 
ENDBRANCH   2  14
TORSDOF 3
ENDMDL
MODEL 4
REMARK VINA RESULT:      -1.5      1.300      2.222
REMARK  3 active torsions:
REMARK  status: ('A' for Active; 'I' for Inactive)
REMARK    1  A    between atoms: C_6  and  N_1 
REMARK    2  A    between atoms: C_5  and  C_6 
REMARK       I    between atoms: N_10  and  C_5 
REMARK    3  A    between atoms: C_16  and  N_10 
ROOT
ATOM      1  C   UNL d   1      31.455  16.995 -23.906  0.00  0.00     0.297 C 
ATOM      2  N   UNL d   1      30.974  16.476 -24.322  0.00  0.00    -0.207 NA
ATOM      3  O   UNL d   1      31.229  17.238 -23.146  0.00  0.00    -0.264 OA
ENDROOT
BRANCH   1   4
ATOM      4  C   UNL d   1      32.154  17.272 -24.237  0.00  0.00     0.148 C 
BRANCH   4   5
ATOM      5  N   UNL d   1      32.515  17.943 -23.928  0.00  0.00    -0.235 N 
ATOM      6  C   UNL d   1      32.516  18.645 -24.353  0.00  0.00     0.273 A 
ATOM      7  C   UNL d   1      32.880  19.318 -24.041  0.00  0.00     0.086 A 
ATOM      8  O   UNL d   1      32.153  18.684 -25.097  0.00  0.00    -0.266 OA
ATOM      9  C   UNL d   1      32.891  20.034 -24.453  0.00  0.00     0.012 C 
ATOM     10  S   UNL d   1      33.239  19.272 -23.302  0.00  0.00    -0.077 SA
ATOM     11  C   UNL d   1      33.241  18.574 -22.875  0.00  0.00     0.097 A 
ATOM     12  C   UNL d   1      32.879  17.903 -23.184  0.00  0.00     0.274 A 
ATOM     13  O   UNL d   1      32.880  17.195 -22.752  0.00  0.00    -0.266 OA
ENDBRANCH   4   5
ENDBRANCH   1   4
BRANCH   2  14
ATOM     14  C   UNL d   1      30.277  16.198 -23.993  0.00  0.00     0.087 A 
ATOM     15  C   UNL d   1      29.566  16.387 -24.365  0.00  0.00     0.045 A 
ATOM     16  C   UNL d   1      28.856  16.120 -24.055  0.00  0.00     0.121 A 
ATOM     17  O   UNL d   1      28.074  16.215 -24.295  0.00  0.00    -0.299 OA
ATOM     18  C   UNL d   1      28.855  15.661 -23.368  0.00  0.00     0.119 A 
ATOM     19  C   UNL d   1      27.592  15.815 -23.757  0.00  0.00     0.304 A 
ATOM     20  O   UNL d   1      28.073  15.480 -23.196  0.00  0.00    -0.300 OA
ATOM     21  C   UNL d   1      29.564  15.469 -22.993  0.00  0.00     0.028 A 
ATOM     22  C   UNL d   1      30.284  15.737 -23.303  0.00  0.00     0.021 A 
ENDBRANCH   2  14
TORSDOF 3
ENDMDL
MODEL 5
REMARK VINA RESULT:      -1.3      1.541      2.189
REMARK  3 active torsions:
REMARK  status: ('A' for Active; 'I' for Inactive)
REMARK    1  A    between atoms: C_6  and  N_1 
REMARK    2  A    between atoms: C_5  and  C_6 
REMARK       I    between atoms: N_10  and  C_5 
REMARK    3  A    between atoms: C_16  and  N_10 
ROOT
ATOM      1  C   UNL d   1      32.832  19.890 -22.624  0.00  0.00     0.297 C 
ATOM      2  N   UNL d   1      33.227  19.295 -23.027  0.00  0.00    -0.207 NA
ATOM      3  O   UNL d   1      32.015  19.980 -22.730  0.00  0.00    -0.264 OA
ENDROOT
BRANCH   1   4
ATOM      4  C   UNL d   1      33.241  20.394 -22.119  0.00  0.00     0.148 C 
BRANCH   4   5
ATOM      5  N   UNL d   1      32.927  21.131 -21.934  0.00  0.00    -0.235 N 
ATOM      6  C   UNL d   1      32.616  21.272 -21.188  0.00  0.00     0.273 A 
ATOM      7  C   UNL d   1      32.301  22.013 -21.002  0.00  0.00     0.086 A 
ATOM      8  O   UNL d   1      32.616  20.673 -20.614  0.00  0.00    -0.266 OA
ATOM      9  C   UNL d   1      31.983  22.175 -20.257  0.00  0.00     0.012 C 
ATOM     10  S   UNL d   1      32.304  22.603 -21.577  0.00  0.00    -0.077 SA
ATOM     11  C   UNL d   1      32.614  22.467 -22.323  0.00  0.00     0.097 A 
ATOM     12  C   UNL d   1      32.927  21.730 -22.508  0.00  0.00     0.274 A 
ATOM     13  O   UNL d   1      33.241  21.590 -23.262  0.00  0.00    -0.266 OA
ENDBRANCH   4   5
ENDBRANCH   1   4
BRANCH   2  14
ATOM     14  C   UNL d   1      32.823  18.792 -23.531  0.00  0.00     0.087 A 
ATOM     15  C   UNL d   1      32.369  18.188 -23.201  0.00  0.00     0.045 A 
ATOM     16  C   UNL d   1      31.955  17.672 -23.684  0.00  0.00     0.121 A 
ATOM     17  O   UNL d   1      31.466  17.030 -23.523  0.00  0.00    -0.299 OA
ATOM     18  C   UNL d   1      31.994  17.759 -24.506  0.00  0.00     0.119 A 
ATOM     19  C   UNL d   1      31.204  16.722 -24.243  0.00  0.00     0.304 A 
ATOM     20  O   UNL d   1      31.528  17.170 -24.836  0.00  0.00    -0.300 OA
ATOM     21  C   UNL d   1      32.446  18.362 -24.840  0.00  0.00     0.028 A 
ATOM     22  C   UNL d   1      32.866  18.885 -24.354  0.00  0.00     0.021 A 
ENDBRANCH   2  14
TORSDOF 3
ENDMDL
