MODEL 1
REMARK VINA RESULT:      24.4      0.000      0.000
REMARK  3 active torsions:
REMARK  status: ('A' for Active; 'I' for Inactive)
REMARK       I    between atoms: C_4  and  N_1 
REMARK    1  A    between atoms: C_2  and  S_8 
REMARK    2  A    between atoms: C_10  and  C_4 
REMARK    3  A    between atoms: S_8  and  C_10 
ROOT
ATOM      1  N   UNL d   1      59.544  49.683  50.792  0.00  0.00    -0.274 N 
ATOM      2  C   UNL d   1      60.145  49.674  51.358  0.00  0.00     0.067 A 
ATOM      3  C   UNL d   1      58.722  49.698  50.943  0.00  0.00     0.259 C 
ATOM      4  C   UNL d   1      59.897  49.675  50.038  0.00  0.00     0.083 A 
ATOM      5  C   UNL d   1      60.869  49.660  50.964  0.00  0.00     0.018 A 
ATOM      6  O   UNL d   1      58.437  49.705  51.727  0.00  0.00    -0.267 OA
ATOM      7  C   UNL d   1      60.711  49.661  50.155  0.00  0.00     0.021 A 
ATOM      8  C   UNL d   1      60.126  49.677  52.183  0.00  0.00     0.018 A 
ATOM      9  C   UNL d   1      61.572  49.649  51.384  0.00  0.00     0.002 A 
ATOM     10  C   UNL d   1      60.818  49.666  52.612  0.00  0.00     0.002 A 
ATOM     11  C   UNL d   1      61.553  49.652  52.222  0.00  0.00     0.000 A 
ENDROOT
BRANCH   3  12
ATOM     12  C   UNL d   1      58.178  49.706  50.309  0.00  0.00     0.127 C 
BRANCH  12  13
ATOM     13  S   UNL d   1      57.371  49.648  50.458  0.00  0.00    -0.069 SA
BRANCH  13  14
ATOM     14  C   UNL d   1      56.872  49.299  49.894  0.00  0.00     0.140 A 
ATOM     15  N   UNL d   1      56.558  49.568  49.172  0.00  0.00    -0.230 NA
ATOM     16  C   UNL d   1      56.096  48.959  48.861  0.00  0.00     0.107 A 
ATOM     17  C   UNL d   1      56.114  48.321  49.370  0.00  0.00     0.058 A 
ATOM     18  S   UNL d   1      56.592  48.522  50.013  0.00  0.00    -0.059 SA
ENDBRANCH  13  14
ENDBRANCH  12  13
ENDBRANCH   3  12
TORSDOF 3
ENDMDL
