MODEL 1
REMARK VINA RESULT:      -3.1      0.000      0.000
REMARK  1 active torsions:
REMARK  status: ('A' for Active; 'I' for Inactive)
REMARK    1  A    between atoms: C_2  and  C_1 
REMARK       I    between atoms: N_3  and  C_2 
ROOT
ATOM      1  C   UNL d   1     -41.511-123.370 -49.564  0.00  0.00     0.248 C 
ATOM      2  N   UNL d   1     -42.271-123.163 -49.303  0.00  0.00    -0.278 N 
ATOM      3  C   UNL d   1     -42.473-123.389 -48.622  0.00  0.00     0.067 A 
ATOM      4  C   UNL d   1     -42.682-122.785 -49.744  0.00  0.00     0.067 A 
ATOM      5  C   UNL d   1     -43.422-122.599 -49.456  0.00  0.00     0.018 A 
ATOM      6  C   UNL d   1     -43.148-123.219 -48.360  0.00  0.00     0.019 A 
ATOM      7  O   UNL d   1     -41.123-123.810 -48.968  0.00  0.00    -0.271 OA
ATOM      8  C   UNL d   1     -41.993-123.783 -48.211  0.00  0.00     0.019 C 
ATOM      9  C   UNL d   1     -42.454-122.537 -50.496  0.00  0.00     0.018 A 
ATOM     10  C   UNL d   1     -43.946-122.164 -49.913  0.00  0.00     0.002 A 
ATOM     11  C   UNL d   1     -42.978-122.100 -50.959  0.00  0.00     0.002 A 
ATOM     12  C   UNL d   1     -43.725-121.914 -50.665  0.00  0.00     0.000 A 
ENDROOT
BRANCH   1  13
ATOM     13  C   UNL d   1     -41.405-123.074 -50.308  0.00  0.00     0.112 A 
ATOM     14  C   UNL d   1     -41.217-122.183 -51.401  0.00  0.00     0.025 A 
ATOM     15  C   UNL d   1     -41.301-122.990 -51.184  0.00  0.00     0.074 A 
ATOM     16  C   UNL d   1     -41.238-121.582 -50.821  0.00  0.00     0.002 C 
ATOM     17  C   UNL d   1     -41.126-122.200 -52.227  0.00  0.00     0.002 C 
ATOM     18  C   UNL d   1     -41.208-123.000 -52.015  0.00  0.00     0.012 C 
ATOM     19  C   UNL d   1     -41.373-122.758 -50.384  0.00  0.00    -0.023 A 
ATOM     20  C   UNL d   1     -41.280-123.584 -51.754  0.00  0.00     0.172 A 
ATOM     21  C   UNL d   1     -41.479-122.957 -49.575  0.00  0.00    -0.018 A 
ATOM     22  C   UNL d   1     -41.386-123.782 -50.946  0.00  0.00     0.024 A 
ATOM     23  O   UNL d   1     -41.207-123.811 -52.558  0.00  0.00    -0.291 OA
ENDBRANCH   1  13
TORSDOF 1
ENDMDL
