MODEL 1
REMARK VINA RESULT:      -5.0      0.000      0.000
REMARK  5 active torsions:
REMARK  status: ('A' for Active; 'I' for Inactive)
REMARK    1  A    between atoms: N_2  and  S_1 
REMARK    2  A    between atoms: N_6  and  S_1 
REMARK    3  A    between atoms: C_3  and  N_4 
REMARK       I    between atoms: N_4  and  C_5 
REMARK    4  A    between atoms: C_5  and  C_14 
REMARK    5  A    between atoms: C_14  and  N_7 
ROOT
ATOM      1  N   UNL d   1     -42.248-122.956 -49.724  0.00  0.00    -0.213 N 
ATOM      2  N   UNL d   1     -41.516-122.385 -51.072  0.00  0.00    -0.296 N 
ATOM      3  C   UNL d   1     -41.492-123.212 -49.921  0.00  0.00     0.112 A 
ATOM      4  C   UNL d   1     -42.647-122.406 -50.207  0.00  0.00     0.112 A 
ATOM      5  C   UNL d   1     -41.123-122.924 -50.601  0.00  0.00     0.100 A 
ATOM      6  C   UNL d   1     -42.278-122.118 -50.887  0.00  0.00     0.100 A 
ENDROOT
BRANCH   2   7
ATOM      7  C   UNL d   1     -41.141-122.093 -51.762  0.00  0.00     0.144 C 
BRANCH   7   8
ATOM      8  C   UNL d   1     -41.385-122.361 -52.508  0.00  0.00     0.297 C 
ATOM      9  N   UNL d   1     -41.334-121.866 -53.164  0.00  0.00    -0.206 NA
ATOM     10  O   UNL d   1     -41.680-123.127 -52.592  0.00  0.00    -0.264 OA
BRANCH   9  11
ATOM     11  C   UNL d   1     -41.577-122.135 -53.907  0.00  0.00     0.096 A 
ATOM     12  C   UNL d   1     -41.272-122.841 -54.205  0.00  0.00     0.032 A 
ATOM     13  C   UNL d   1     -41.515-123.111 -54.948  0.00  0.00     0.059 A 
ATOM     14 CL   UNL d   1     -41.210-123.817 -55.245  0.00  0.00    -0.082 Cl
ATOM     15  C   UNL d   1     -42.058-122.674 -55.387  0.00  0.00     0.012 A 
ATOM     16  C   UNL d   1     -42.361-121.968 -55.086  0.00  0.00     0.014 A 
ATOM     17  C   UNL d   1     -42.117-121.699 -54.342  0.00  0.00     0.075 A 
ATOM     18 CL   UNL d   1     -42.415-120.994 -54.035  0.00  0.00    -0.081 Cl
ENDBRANCH   9  11
ENDBRANCH   7   8
ENDBRANCH   2   7
BRANCH   1  19
ATOM     19  S   UNL d   1     -42.618-123.244 -49.044  0.00  0.00     0.337 S 
ATOM     20  O   UNL d   1     -43.248-123.780 -49.112  0.00  0.00    -0.181 OA
ATOM     21  O   UNL d   1     -42.361-122.999 -48.300  0.00  0.00    -0.181 OA
BRANCH  19  22
ATOM     22  N   UNL d   1     -42.987-123.531 -48.365  0.00  0.00    -0.213 N 
ATOM     23  C   UNL d   1     -43.765-123.817 -48.407  0.00  0.00     0.113 C 
ATOM     24  C   UNL d   1     -42.584-123.534 -47.646  0.00  0.00     0.113 C 
ENDBRANCH  19  22
ENDBRANCH   1  19
TORSDOF 5
ENDMDL
MODEL 2
REMARK VINA RESULT:      -4.5      2.452      5.260
REMARK  5 active torsions:
REMARK  status: ('A' for Active; 'I' for Inactive)
REMARK    1  A    between atoms: N_2  and  S_1 
REMARK    2  A    between atoms: N_6  and  S_1 
REMARK    3  A    between atoms: C_3  and  N_4 
REMARK       I    between atoms: N_4  and  C_5 
REMARK    4  A    between atoms: C_5  and  C_14 
REMARK    5  A    between atoms: C_14  and  N_7 
ROOT
ATOM      1  N   UNL d   1     -41.730-122.483 -53.631  0.00  0.00    -0.213 N 
ATOM      2  N   UNL d   1     -41.328-122.937 -52.110  0.00  0.00    -0.296 N 
ATOM      3  C   UNL d   1     -41.817-121.955 -53.006  0.00  0.00     0.112 A 
ATOM      4  C   UNL d   1     -41.437-123.251 -53.495  0.00  0.00     0.112 A 
ATOM      5  C   UNL d   1     -41.615-122.184 -52.240  0.00  0.00     0.100 A 
ATOM      6  C   UNL d   1     -41.235-123.481 -52.728  0.00  0.00     0.100 A 
ENDROOT
BRANCH   2   7
ATOM      7  C   UNL d   1     -41.123-123.170 -51.332  0.00  0.00     0.144 C 
BRANCH   7   8
ATOM      8  C   UNL d   1     -41.704-123.192 -50.741  0.00  0.00     0.297 C 
ATOM      9  N   UNL d   1     -41.612-123.683 -50.087  0.00  0.00    -0.206 NA
ATOM     10  O   UNL d   1     -42.377-122.719 -50.811  0.00  0.00    -0.264 OA
BRANCH   9  11
ATOM     11  C   UNL d   1     -42.193-123.704 -49.498  0.00  0.00     0.096 A 
ATOM     12  C   UNL d   1     -42.988-123.750 -49.712  0.00  0.00     0.032 A 
ATOM     13  C   UNL d   1     -43.570-123.771 -49.125  0.00  0.00     0.059 A 
ATOM     14 CL   UNL d   1     -44.365-123.818 -49.339  0.00  0.00    -0.082 Cl
ATOM     15  C   UNL d   1     -43.353-123.745 -48.331  0.00  0.00     0.012 A 
ATOM     16  C   UNL d   1     -42.556-123.698 -48.121  0.00  0.00     0.014 A 
ATOM     17  C   UNL d   1     -41.976-123.677 -48.709  0.00  0.00     0.075 A 
ATOM     18 CL   UNL d   1     -41.177-123.631 -48.507  0.00  0.00    -0.081 Cl
ENDBRANCH   9  11
ENDBRANCH   7   8
ENDBRANCH   2   7
BRANCH   1  19
ATOM     19  S   UNL d   1     -41.933-122.254 -54.397  0.00  0.00     0.337 S 
ATOM     20  O   UNL d   1     -42.620-122.556 -54.750  0.00  0.00    -0.181 OA
ATOM     21  O   UNL d   1     -41.454-121.726 -54.810  0.00  0.00    -0.181 OA
BRANCH  19  22
ATOM     22  N   UNL d   1     -42.135-122.024 -55.163  0.00  0.00    -0.213 N 
ATOM     23  C   UNL d   1     -41.539-121.861 -55.717  0.00  0.00     0.113 C 
ATOM     24  C   UNL d   1     -42.928-121.958 -55.378  0.00  0.00     0.113 C 
ENDBRANCH  19  22
ENDBRANCH   1  19
TORSDOF 5
ENDMDL
