MODEL 1
REMARK VINA RESULT:      -3.3      0.000      0.000
REMARK  3 active torsions:
REMARK  status: ('A' for Active; 'I' for Inactive)
REMARK    1  A    between atoms: C_10  and  C_4 
REMARK    2  A    between atoms: C_11  and  C_7 
REMARK    3  A    between atoms: C_12  and  C_10 
ROOT
ATOM      1  N   UNL d   1      31.663  16.724 -24.064  0.00  0.00    -0.186 N 
ATOM      2  N   UNL d   1      31.871  17.486 -23.788  0.00  0.00    -0.162 NA
ATOM      3  C   UNL d   1      32.255  16.141 -24.130  0.00  0.00     0.217 A 
ATOM      4  C   UNL d   1      30.955  16.395 -24.302  0.00  0.00     0.187 A 
ATOM      5  N   UNL d   1      31.091  15.614 -24.517  0.00  0.00    -0.127 NA
ATOM      6  N   UNL d   1      31.885  15.463 -24.411  0.00  0.00    -0.120 NA
ATOM      7  C   UNL d   1      32.648  17.657 -23.585  0.00  0.00     0.108 A 
ATOM      8  S   UNL d   1      33.026  16.331 -23.922  0.00  0.00    -0.045 SA
ATOM      9  C   UNL d   1      33.241  17.074 -23.651  0.00  0.00     0.059 A 
ENDROOT
BRANCH   4  10
ATOM     10  C   UNL d   1      30.226  16.759 -24.330  0.00  0.00     0.041 C 
BRANCH  10  11
ATOM     11  C   UNL d   1      29.557  16.328 -24.173  0.00  0.00     0.003 A 
ATOM     12  C   UNL d   1      29.304  16.213 -23.400  0.00  0.00     0.000 A 
ATOM     13  C   UNL d   1      28.625  15.777 -23.230  0.00  0.00     0.000 A 
ATOM     14  C   UNL d   1      28.198  15.455 -23.846  0.00  0.00     0.000 A 
ATOM     15  C   UNL d   1      28.447  15.568 -24.619  0.00  0.00     0.000 A 
ATOM     16  C   UNL d   1      29.117  15.998 -24.789  0.00  0.00     0.000 A 
ENDBRANCH  10  11
ENDBRANCH   4  10
BRANCH   7  17
ATOM     17  C   UNL d   1      32.845  18.415 -23.312  0.00  0.00     0.020 A 
ATOM     18  C   UNL d   1      32.948  18.551 -22.500  0.00  0.00     0.002 A 
ATOM     19  C   UNL d   1      33.146  19.308 -22.215  0.00  0.00     0.000 A 
ATOM     20  C   UNL d   1      33.240  19.936 -22.759  0.00  0.00     0.000 A 
ATOM     21  C   UNL d   1      33.139  19.807 -23.560  0.00  0.00     0.000 A 
ATOM     22  C   UNL d   1      32.941  19.045 -23.845  0.00  0.00     0.002 A 
ENDBRANCH   7  17
TORSDOF 3
ENDMDL
MODEL 2
REMARK VINA RESULT:      -2.6      1.724      2.768
REMARK  3 active torsions:
REMARK  status: ('A' for Active; 'I' for Inactive)
REMARK    1  A    between atoms: C_10  and  C_4 
REMARK    2  A    between atoms: C_11  and  C_7 
REMARK    3  A    between atoms: C_12  and  C_10 
ROOT
ATOM      1  N   UNL d   1      32.836  18.781 -23.544  0.00  0.00    -0.186 N 
ATOM      2  N   UNL d   1      32.816  19.178 -22.807  0.00  0.00    -0.162 NA
ATOM      3  C   UNL d   1      33.053  19.205 -24.228  0.00  0.00     0.217 A 
ATOM      4  C   UNL d   1      32.679  18.010 -23.762  0.00  0.00     0.187 A 
ATOM      5  N   UNL d   1      32.793  17.941 -24.573  0.00  0.00    -0.127 NA
ATOM      6  N   UNL d   1      33.021  18.673 -24.853  0.00  0.00    -0.120 NA
ATOM      7  C   UNL d   1      33.008  19.975 -22.760  0.00  0.00     0.108 A 
ATOM      8  S   UNL d   1      33.241  20.001 -24.160  0.00  0.00    -0.045 SA
ATOM      9  C   UNL d   1      33.225  20.400 -23.444  0.00  0.00     0.059 A 
ENDROOT
BRANCH   4  10
ATOM     10  C   UNL d   1      32.447  17.397 -23.278  0.00  0.00     0.041 C 
BRANCH  10  11
ATOM     11  C   UNL d   1      32.022  16.780 -23.588  0.00  0.00     0.003 A 
ATOM     12  C   UNL d   1      31.203  16.823 -23.648  0.00  0.00     0.000 A 
ATOM     13  C   UNL d   1      30.762  16.201 -23.961  0.00  0.00     0.000 A 
ATOM     14  C   UNL d   1      31.150  15.531 -24.216  0.00  0.00     0.000 A 
ATOM     15  C   UNL d   1      31.967  15.484 -24.157  0.00  0.00     0.000 A 
ATOM     16  C   UNL d   1      32.404  16.096 -23.848  0.00  0.00     0.000 A 
ENDBRANCH  10  11
ENDBRANCH   4  10
BRANCH   7  17
ATOM     17  C   UNL d   1      32.986  20.360 -22.026  0.00  0.00     0.020 A 
ATOM     18  C   UNL d   1      33.241  19.965 -21.341  0.00  0.00     0.002 A 
ATOM     19  C   UNL d   1      33.223  20.341 -20.599  0.00  0.00     0.000 A 
ATOM     20  C   UNL d   1      32.943  21.128 -20.548  0.00  0.00     0.000 A 
ATOM     21  C   UNL d   1      32.691  21.521 -21.219  0.00  0.00     0.000 A 
ATOM     22  C   UNL d   1      32.709  21.141 -21.965  0.00  0.00     0.002 A 
ENDBRANCH   7  17
TORSDOF 3
ENDMDL
MODEL 3
REMARK VINA RESULT:      -2.5      2.205      4.912
REMARK  3 active torsions:
REMARK  status: ('A' for Active; 'I' for Inactive)
REMARK    1  A    between atoms: C_10  and  C_4 
REMARK    2  A    between atoms: C_11  and  C_7 
REMARK    3  A    between atoms: C_12  and  C_10 
ROOT
ATOM      1  N   UNL d   1      32.961  19.639 -23.312  0.00  0.00    -0.186 N 
ATOM      2  N   UNL d   1      32.792  18.829 -23.185  0.00  0.00    -0.162 NA
ATOM      3  C   UNL d   1      32.995  19.929 -24.092  0.00  0.00     0.217 A 
ATOM      4  C   UNL d   1      33.111  20.260 -22.804  0.00  0.00     0.187 A 
ATOM      5  N   UNL d   1      33.240  20.937 -23.251  0.00  0.00    -0.127 NA
ATOM      6  N   UNL d   1      33.168  20.731 -24.037  0.00  0.00    -0.120 NA
ATOM      7  C   UNL d   1      32.663  18.328 -23.822  0.00  0.00     0.108 A 
ATOM      8  S   UNL d   1      32.862  19.411 -24.716  0.00  0.00    -0.045 SA
ATOM      9  C   UNL d   1      32.697  18.617 -24.603  0.00  0.00     0.059 A 
ENDROOT
BRANCH   4  10
ATOM     10  C   UNL d   1      33.135  20.238 -21.989  0.00  0.00     0.041 C 
BRANCH  10  11
ATOM     11  C   UNL d   1      32.829  20.854 -21.561  0.00  0.00     0.003 A 
ATOM     12  C   UNL d   1      32.104  20.781 -21.181  0.00  0.00     0.000 A 
ATOM     13  C   UNL d   1      31.784  21.403 -20.743  0.00  0.00     0.000 A 
ATOM     14  C   UNL d   1      32.199  22.103 -20.690  0.00  0.00     0.000 A 
ATOM     15  C   UNL d   1      32.923  22.179 -21.069  0.00  0.00     0.000 A 
ATOM     16  C   UNL d   1      33.240  21.568 -21.501  0.00  0.00     0.000 A 
ENDBRANCH  10  11
ENDBRANCH   4  10
BRANCH   7  17
ATOM     17  C   UNL d   1      32.496  17.526 -23.686  0.00  0.00     0.020 A 
ATOM     18  C   UNL d   1      33.064  17.039 -23.326  0.00  0.00     0.002 A 
ATOM     19  C   UNL d   1      32.909  16.233 -23.185  0.00  0.00     0.000 A 
ATOM     20  C   UNL d   1      32.168  15.916 -23.411  0.00  0.00     0.000 A 
ATOM     21  C   UNL d   1      31.606  16.392 -23.766  0.00  0.00     0.000 A 
ATOM     22  C   UNL d   1      31.764  17.202 -23.907  0.00  0.00     0.002 A 
ENDBRANCH   7  17
TORSDOF 3
ENDMDL
MODEL 4
REMARK VINA RESULT:      -2.3      2.687      4.149
REMARK  3 active torsions:
REMARK  status: ('A' for Active; 'I' for Inactive)
REMARK    1  A    between atoms: C_10  and  C_4 
REMARK    2  A    between atoms: C_11  and  C_7 
REMARK    3  A    between atoms: C_12  and  C_10 
ROOT
ATOM      1  N   UNL d   1      32.945  19.945 -22.387  0.00  0.00    -0.186 N 
ATOM      2  N   UNL d   1      32.822  20.771 -22.430  0.00  0.00    -0.162 NA
ATOM      3  C   UNL d   1      33.155  19.603 -21.657  0.00  0.00     0.217 A 
ATOM      4  C   UNL d   1      32.901  19.349 -22.943  0.00  0.00     0.187 A 
ATOM      5  N   UNL d   1      33.081  18.636 -22.576  0.00  0.00    -0.127 NA
ATOM      6  N   UNL d   1      33.235  18.795 -21.791  0.00  0.00    -0.120 NA
ATOM      7  C   UNL d   1      32.909  21.239 -21.760  0.00  0.00     0.108 A 
ATOM      8  S   UNL d   1      33.236  20.087 -20.999  0.00  0.00    -0.045 SA
ATOM      9  C   UNL d   1      33.119  20.897 -21.029  0.00  0.00     0.059 A 
ENDROOT
BRANCH   4  10
ATOM     10  C   UNL d   1      32.714  19.422 -23.733  0.00  0.00     0.041 C 
BRANCH  10  11
ATOM     11  C   UNL d   1      32.571  18.758 -24.176  0.00  0.00     0.003 A 
ATOM     12  C   UNL d   1      33.192  18.330 -24.502  0.00  0.00     0.000 A 
ATOM     13  C   UNL d   1      33.057  17.653 -24.954  0.00  0.00     0.000 A 
ATOM     14  C   UNL d   1      32.290  17.407 -25.076  0.00  0.00     0.000 A 
ATOM     15  C   UNL d   1      31.667  17.832 -24.752  0.00  0.00     0.000 A 
ATOM     16  C   UNL d   1      31.798  18.500 -24.306  0.00  0.00     0.000 A 
ENDBRANCH  10  11
ENDBRANCH   4  10
BRANCH   7  17
ATOM     17  C   UNL d   1      32.785  22.058 -21.812  0.00  0.00     0.020 A 
ATOM     18  C   UNL d   1      32.307  22.442 -21.253  0.00  0.00     0.002 A 
ATOM     19  C   UNL d   1      32.176  23.263 -21.295  0.00  0.00     0.000 A 
ATOM     20  C   UNL d   1      32.534  23.701 -21.911  0.00  0.00     0.000 A 
ATOM     21  C   UNL d   1      33.006  23.327 -22.464  0.00  0.00     0.000 A 
ATOM     22  C   UNL d   1      33.137  22.501 -22.420  0.00  0.00     0.002 A 
ENDBRANCH   7  17
TORSDOF 3
ENDMDL
MODEL 5
REMARK VINA RESULT:      -0.9      4.811      7.433
REMARK  3 active torsions:
REMARK  status: ('A' for Active; 'I' for Inactive)
REMARK    1  A    between atoms: C_10  and  C_4 
REMARK    2  A    between atoms: C_11  and  C_7 
REMARK    3  A    between atoms: C_12  and  C_10 
ROOT
ATOM      1  N   UNL d   1      32.864  22.406 -20.370  0.00  0.00    -0.186 N 
ATOM      2  N   UNL d   1      32.968  21.611 -20.612  0.00  0.00    -0.162 NA
ATOM      3  C   UNL d   1      32.715  22.989 -20.947  0.00  0.00     0.217 A 
ATOM      4  C   UNL d   1      32.876  22.769 -19.639  0.00  0.00     0.187 A 
ATOM      5  N   UNL d   1      32.737  23.571 -19.745  0.00  0.00    -0.127 NA
ATOM      6  N   UNL d   1      32.639  23.702 -20.544  0.00  0.00    -0.120 NA
ATOM      7  C   UNL d   1      32.924  21.410 -21.406  0.00  0.00     0.108 A 
ATOM      8  S   UNL d   1      32.675  22.768 -21.736  0.00  0.00    -0.045 SA
ATOM      9  C   UNL d   1      32.776  21.993 -21.984  0.00  0.00     0.059 A 
ENDROOT
BRANCH   4  10
ATOM     10  C   UNL d   1      33.001  22.417 -18.915  0.00  0.00     0.041 C 
BRANCH  10  11
ATOM     11  C   UNL d   1      32.792  22.809 -18.236  0.00  0.00     0.003 A 
ATOM     12  C   UNL d   1      32.131  23.297 -18.221  0.00  0.00     0.000 A 
ATOM     13  C   UNL d   1      31.910  23.700 -17.536  0.00  0.00     0.000 A 
ATOM     14  C   UNL d   1      32.360  23.609 -16.862  0.00  0.00     0.000 A 
ATOM     15  C   UNL d   1      33.021  23.123 -16.874  0.00  0.00     0.000 A 
ATOM     16  C   UNL d   1      33.241  22.725 -17.548  0.00  0.00     0.000 A 
ENDBRANCH  10  11
ENDBRANCH   4  10
BRANCH   7  17
ATOM     17  C   UNL d   1      33.029  20.620 -21.637  0.00  0.00     0.020 A 
ATOM     18  C   UNL d   1      33.107  20.026 -21.062  0.00  0.00     0.002 A 
ATOM     19  C   UNL d   1      33.213  19.230 -21.281  0.00  0.00     0.000 A 
ATOM     20  C   UNL d   1      33.239  19.032 -22.093  0.00  0.00     0.000 A 
ATOM     21  C   UNL d   1      33.163  19.612 -22.663  0.00  0.00     0.000 A 
ATOM     22  C   UNL d   1      33.057  20.413 -22.441  0.00  0.00     0.002 A 
ENDBRANCH   7  17
TORSDOF 3
ENDMDL
MODEL 6
REMARK VINA RESULT:      -0.6      3.437      5.575
REMARK  3 active torsions:
REMARK  status: ('A' for Active; 'I' for Inactive)
REMARK    1  A    between atoms: C_10  and  C_4 
REMARK    2  A    between atoms: C_11  and  C_7 
REMARK    3  A    between atoms: C_12  and  C_10 
ROOT
ATOM      1  N   UNL d   1      33.217  20.258 -21.739  0.00  0.00    -0.186 N 
ATOM      2  N   UNL d   1      33.214  20.001 -22.536  0.00  0.00    -0.162 NA
ATOM      3  C   UNL d   1      33.208  19.689 -21.130  0.00  0.00     0.217 A 
ATOM      4  C   UNL d   1      33.229  20.998 -21.395  0.00  0.00     0.187 A 
ATOM      5  N   UNL d   1      33.227  20.905 -20.579  0.00  0.00    -0.127 NA
ATOM      6  N   UNL d   1      33.214  20.105 -20.421  0.00  0.00    -0.120 NA
ATOM      7  C   UNL d   1      33.201  19.200 -22.714  0.00  0.00     0.108 A 
ATOM      8  S   UNL d   1      33.195  18.892 -21.329  0.00  0.00    -0.045 SA
ATOM      9  C   UNL d   1      33.191  18.631 -22.105  0.00  0.00     0.059 A 
ENDROOT
BRANCH   4  10
ATOM     10  C   UNL d   1      33.241  21.719 -21.775  0.00  0.00     0.041 C 
BRANCH  10  11
ATOM     11  C   UNL d   1      32.812  22.338 -21.474  0.00  0.00     0.003 A 
ATOM     12  C   UNL d   1      33.138  22.838 -20.909  0.00  0.00     0.000 A 
ATOM     13  C   UNL d   1      32.710  23.471 -20.597  0.00  0.00     0.000 A 
ATOM     14  C   UNL d   1      31.948  23.598 -20.857  0.00  0.00     0.000 A 
ATOM     15  C   UNL d   1      31.619  23.101 -21.421  0.00  0.00     0.000 A 
ATOM     16  C   UNL d   1      32.040  22.477 -21.730  0.00  0.00     0.000 A 
ENDBRANCH  10  11
ENDBRANCH   4  10
BRANCH   7  17
ATOM     17  C   UNL d   1      33.197  18.955 -23.507  0.00  0.00     0.020 A 
ATOM     18  C   UNL d   1      33.224  18.147 -23.692  0.00  0.00     0.002 A 
ATOM     19  C   UNL d   1      33.221  17.890 -24.484  0.00  0.00     0.000 A 
ATOM     20  C   UNL d   1      33.191  18.459 -25.097  0.00  0.00     0.000 A 
ATOM     21  C   UNL d   1      33.165  19.256 -24.919  0.00  0.00     0.000 A 
ATOM     22  C   UNL d   1      33.168  19.513 -24.122  0.00  0.00     0.002 A 
ENDBRANCH   7  17
TORSDOF 3
ENDMDL
