MODEL 1
REMARK VINA RESULT:      -8.9      0.000      0.000
REMARK  5 active torsions:
REMARK  status: ('A' for Active; 'I' for Inactive)
REMARK    1  A    between atoms: N_2  and  S_1 
REMARK    2  A    between atoms: C_7  and  S_1 
REMARK    3  A    between atoms: C_3  and  N_2 
REMARK       I    between atoms: C_11  and  N_12 
REMARK    4  A    between atoms: C_19  and  C_11 
REMARK    5  A    between atoms: N_12  and  C_16 
ROOT
ATOM      1  C   UNL d   1      52.901  32.391  53.033  0.00  0.00     0.105 A 
ATOM      2  C   UNL d   1      53.565  32.890  53.023  0.00  0.00     0.015 A 
ATOM      3  C   UNL d   1      52.178  32.662  53.225  0.00  0.00     0.015 A 
ATOM      4  C   UNL d   1      52.759  33.971  53.409  0.00  0.00     0.085 A 
ATOM      5  C   UNL d   1      53.484  33.676  53.211  0.00  0.00     0.020 A 
ATOM      6  C   UNL d   1      52.096  33.470  53.419  0.00  0.00     0.020 A 
ENDROOT
BRANCH   1   7
ATOM      7  S   UNL d   1      52.996  31.578  52.836  0.00  0.00     0.287 S 
ATOM      8  O   UNL d   1      53.792  31.586  53.138  0.00  0.00    -0.198 OA
ATOM      9  O   UNL d   1      52.225  31.563  52.543  0.00  0.00    -0.198 OA
BRANCH   7  10
ATOM     10  N   UNL d   1      53.084  30.773  52.640  0.00  0.00    -0.137 NA
BRANCH  10  11
ATOM     11  C   UNL d   1      53.003  30.185  53.227  0.00  0.00     0.203 A 
ATOM     12  N   UNL d   1      52.306  29.764  53.272  0.00  0.00    -0.106 NA
ATOM     13  O   UNL d   1      52.400  29.230  53.904  0.00  0.00    -0.210 OA
ATOM     14  C   UNL d   1      53.138  29.333  54.227  0.00  0.00     0.128 A 
ATOM     15  C   UNL d   1      53.528  29.939  53.801  0.00  0.00     0.069 A 
ATOM     16  C   UNL d   1      53.450  28.913  54.863  0.00  0.00     0.029 C 
ENDBRANCH  10  11
ENDBRANCH   7  10
ENDBRANCH   1   7
BRANCH   4  17
ATOM     17  N   UNL d   1      52.668  34.777  53.603  0.00  0.00    -0.208 NA
ATOM     18  C   UNL d   1      52.942  35.060  54.320  0.00  0.00     0.279 C 
ATOM     19  O   UNL d   1      52.852  35.860  54.513  0.00  0.00    -0.265 OA
BRANCH  18  20
ATOM     20  C   UNL d   1      53.304  34.549  54.843  0.00  0.00     0.062 C 
ATOM     21  C   UNL d   1      53.579  34.825  55.590  0.00  0.00     0.005 C 
ENDBRANCH  18  20
ENDBRANCH   4  17
TORSDOF 5
ENDMDL
MODEL 2
REMARK VINA RESULT:      -8.0      1.866      2.512
REMARK  5 active torsions:
REMARK  status: ('A' for Active; 'I' for Inactive)
REMARK    1  A    between atoms: N_2  and  S_1 
REMARK    2  A    between atoms: C_7  and  S_1 
REMARK    3  A    between atoms: C_3  and  N_2 
REMARK       I    between atoms: C_11  and  N_12 
REMARK    4  A    between atoms: C_19  and  C_11 
REMARK    5  A    between atoms: N_12  and  C_16 
ROOT
ATOM      1  C   UNL d   1      52.089  33.157  53.059  0.00  0.00     0.105 A 
ATOM      2  C   UNL d   1      51.349  32.869  53.304  0.00  0.00     0.015 A 
ATOM      3  C   UNL d   1      52.200  33.926  52.884  0.00  0.00     0.015 A 
ATOM      4  C   UNL d   1      50.810  34.159  53.197  0.00  0.00     0.085 A 
ATOM      5  C   UNL d   1      50.718  33.375  53.370  0.00  0.00     0.020 A 
ATOM      6  C   UNL d   1      51.551  34.446  52.953  0.00  0.00     0.020 A 
ENDROOT
BRANCH   1   7
ATOM      7  S   UNL d   1      52.737  32.624  52.994  0.00  0.00     0.287 S 
ATOM      8  O   UNL d   1      52.982  32.807  53.788  0.00  0.00    -0.198 OA
ATOM      9  O   UNL d   1      52.505  32.441  52.223  0.00  0.00    -0.198 OA
BRANCH   7  10
ATOM     10  N   UNL d   1      53.376  32.094  52.924  0.00  0.00    -0.137 NA
BRANCH  10  11
ATOM     11  C   UNL d   1      53.271  31.283  53.091  0.00  0.00     0.203 A 
ATOM     12  N   UNL d   1      52.985  30.792  52.506  0.00  0.00    -0.106 NA
ATOM     13  O   UNL d   1      52.944  30.031  52.842  0.00  0.00    -0.210 OA
ATOM     14  C   UNL d   1      53.202  30.071  53.612  0.00  0.00     0.128 A 
ATOM     15  C   UNL d   1      53.411  30.864  53.778  0.00  0.00     0.069 A 
ATOM     16  C   UNL d   1      53.249  29.440  54.138  0.00  0.00     0.029 C 
ENDBRANCH  10  11
ENDBRANCH   7  10
ENDBRANCH   1   7
BRANCH   4  17
ATOM     17  N   UNL d   1      50.166  34.685  53.263  0.00  0.00    -0.208 NA
ATOM     18  C   UNL d   1      49.650  34.783  52.637  0.00  0.00     0.279 C 
ATOM     19  O   UNL d   1      49.011  35.305  52.702  0.00  0.00    -0.265 OA
BRANCH  18  20
ATOM     20  C   UNL d   1      49.768  34.363  51.947  0.00  0.00     0.062 C 
ATOM     21  C   UNL d   1      49.248  34.459  51.292  0.00  0.00     0.005 C 
ENDBRANCH  18  20
ENDBRANCH   4  17
TORSDOF 5
ENDMDL
MODEL 3
REMARK VINA RESULT:      -7.9      1.301      4.492
REMARK  5 active torsions:
REMARK  status: ('A' for Active; 'I' for Inactive)
REMARK    1  A    between atoms: N_2  and  S_1 
REMARK    2  A    between atoms: C_7  and  S_1 
REMARK    3  A    between atoms: C_3  and  N_2 
REMARK       I    between atoms: C_11  and  N_12 
REMARK    4  A    between atoms: C_19  and  C_11 
REMARK    5  A    between atoms: N_12  and  C_16 
ROOT
ATOM      1  C   UNL d   1      53.765  32.265  53.802  0.00  0.00     0.105 A 
ATOM      2  C   UNL d   1      54.280  31.675  53.524  0.00  0.00     0.015 A 
ATOM      3  C   UNL d   1      52.976  32.160  53.811  0.00  0.00     0.015 A 
ATOM      4  C   UNL d   1      53.183  30.844  53.255  0.00  0.00     0.085 A 
ATOM      5  C   UNL d   1      53.981  30.970  53.254  0.00  0.00     0.020 A 
ATOM      6  C   UNL d   1      52.670  31.435  53.532  0.00  0.00     0.020 A 
ENDROOT
BRANCH   1   7
ATOM      7  S   UNL d   1      54.086  32.992  54.080  0.00  0.00     0.287 S 
ATOM      8  O   UNL d   1      54.039  32.718  54.884  0.00  0.00    -0.198 OA
ATOM      9  O   UNL d   1      54.134  33.265  53.303  0.00  0.00    -0.198 OA
BRANCH   7  10
ATOM     10  N   UNL d   1      54.403  33.714  54.350  0.00  0.00    -0.137 NA
BRANCH  10  11
ATOM     11  C   UNL d   1      53.896  34.330  54.595  0.00  0.00     0.203 A 
ATOM     12  N   UNL d   1      53.839  34.503  55.391  0.00  0.00    -0.106 NA
ATOM     13  O   UNL d   1      53.299  35.133  55.452  0.00  0.00    -0.210 OA
ATOM     14  C   UNL d   1      53.040  35.330  54.707  0.00  0.00     0.128 A 
ATOM     15  C   UNL d   1      53.416  34.824  54.157  0.00  0.00     0.069 A 
ATOM     16  C   UNL d   1      52.502  35.926  54.524  0.00  0.00     0.029 C 
ENDBRANCH  10  11
ENDBRANCH   7  10
ENDBRANCH   1   7
BRANCH   4  17
ATOM     17  N   UNL d   1      52.869  30.122  52.978  0.00  0.00    -0.208 NA
ATOM     18  C   UNL d   1      52.888  29.457  53.453  0.00  0.00     0.279 C 
ATOM     19  O   UNL d   1      52.576  28.741  53.179  0.00  0.00    -0.265 OA
BRANCH  18  20
ATOM     20  C   UNL d   1      53.216  29.503  54.199  0.00  0.00     0.062 C 
ATOM     21  C   UNL d   1      53.253  28.823  54.693  0.00  0.00     0.005 C 
ENDBRANCH  18  20
ENDBRANCH   4  17
TORSDOF 5
ENDMDL
MODEL 4
REMARK VINA RESULT:      -7.9      1.576      4.320
REMARK  5 active torsions:
REMARK  status: ('A' for Active; 'I' for Inactive)
REMARK    1  A    between atoms: N_2  and  S_1 
REMARK    2  A    between atoms: C_7  and  S_1 
REMARK    3  A    between atoms: C_3  and  N_2 
REMARK       I    between atoms: C_11  and  N_12 
REMARK    4  A    between atoms: C_19  and  C_11 
REMARK    5  A    between atoms: N_12  and  C_16 
ROOT
ATOM      1  C   UNL d   1      53.002  31.977  53.276  0.00  0.00     0.105 A 
ATOM      2  C   UNL d   1      53.694  31.721  53.657  0.00  0.00     0.015 A 
ATOM      3  C   UNL d   1      52.475  31.460  52.978  0.00  0.00     0.015 A 
ATOM      4  C   UNL d   1      53.325  30.386  53.436  0.00  0.00     0.085 A 
ATOM      5  C   UNL d   1      53.847  30.927  53.732  0.00  0.00     0.020 A 
ATOM      6  C   UNL d   1      52.632  30.644  53.055  0.00  0.00     0.020 A 
ENDROOT
BRANCH   1   7
ATOM      7  S   UNL d   1      52.853  32.802  53.204  0.00  0.00     0.287 S 
ATOM      8  O   UNL d   1      52.725  32.864  54.043  0.00  0.00    -0.198 OA
ATOM      9  O   UNL d   1      52.976  32.750  52.390  0.00  0.00    -0.198 OA
BRANCH   7  10
ATOM     10  N   UNL d   1      52.707  33.618  53.126  0.00  0.00    -0.137 NA
BRANCH  10  11
ATOM     11  C   UNL d   1      51.963  33.889  52.861  0.00  0.00     0.203 A 
ATOM     12  N   UNL d   1      51.884  34.132  52.086  0.00  0.00    -0.106 NA
ATOM     13  O   UNL d   1      51.089  34.365  51.997  0.00  0.00    -0.210 OA
ATOM     14  C   UNL d   1      50.705  34.262  52.706  0.00  0.00     0.128 A 
ATOM     15  C   UNL d   1      51.255  33.959  53.260  0.00  0.00     0.069 A 
ATOM     16  C   UNL d   1      49.912  34.427  52.854  0.00  0.00     0.029 C 
ENDBRANCH  10  11
ENDBRANCH   7  10
ENDBRANCH   1   7
BRANCH   4  17
ATOM     17  N   UNL d   1      53.475  29.569  53.509  0.00  0.00    -0.208 NA
ATOM     18  C   UNL d   1      53.357  29.192  54.225  0.00  0.00     0.279 C 
ATOM     19  O   UNL d   1      53.506  28.381  54.297  0.00  0.00    -0.265 OA
BRANCH  18  20
ATOM     20  C   UNL d   1      53.092  29.620  54.867  0.00  0.00     0.062 C 
ATOM     21  C   UNL d   1      53.003  29.253  55.619  0.00  0.00     0.005 C 
ENDBRANCH  18  20
ENDBRANCH   4  17
TORSDOF 5
ENDMDL
