MODEL 1
REMARK VINA RESULT:     111.7      0.000      0.000
REMARK  5 active torsions:
REMARK  status: ('A' for Active; 'I' for Inactive)
REMARK    1  A    between atoms: O_8  and  S_1 
REMARK    2  A    between atoms: C_9  and  S_1 
REMARK    3  A    between atoms: C_7  and  C_2 
REMARK    4  A    between atoms: C_20  and  C_7 
REMARK    5  A    between atoms: C_14  and  O_8 
ROOT
ATOM      1  C   UNL d   1     -57.368-102.613 -39.180  0.00  0.00     0.139 A 
ATOM      2  C   UNL d   1     -56.063-102.758 -39.391  0.00  0.00     0.064 A 
ATOM      3  C   UNL d   1     -56.639-102.716 -38.806  0.00  0.00     0.220 A 
ATOM      4  C   UNL d   1     -56.428-102.682 -40.127  0.00  0.00     0.105 A 
ATOM      5  O   UNL d   1     -57.239-102.593 -39.995  0.00  0.00    -0.304 OA
ATOM      6  C   UNL d   1     -55.978-102.705 -40.806  0.00  0.00     0.050 A 
ATOM      7  C   UNL d   1     -55.246-102.856 -39.345  0.00  0.00     0.007 A 
ATOM      8  C   UNL d   1     -55.162-102.803 -40.760  0.00  0.00     0.116 A 
ATOM      9  O   UNL d   1     -56.521-102.765 -37.992  0.00  0.00    -0.284 OA
ATOM     10  C   UNL d   1     -54.800-102.878 -40.032  0.00  0.00     0.026 A 
ENDROOT
BRANCH   8  11
ATOM     11  O   UNL d   1     -54.712-102.826 -41.448  0.00  0.00    -0.227 OA
BRANCH  11  12
ATOM     12  S   UNL d   1     -54.836-102.266 -42.042  0.00  0.00     0.304 S 
ATOM     13  O   UNL d   1     -54.938-102.863 -42.584  0.00  0.00    -0.193 OA
ATOM     14  O   UNL d   1     -54.735-101.654 -41.504  0.00  0.00    -0.193 OA
BRANCH  12  15
ATOM     15  C   UNL d   1     -54.962-101.704 -42.645  0.00  0.00     0.111 A 
ATOM     16  C   UNL d   1     -54.901-100.898 -42.470  0.00  0.00     0.016 A 
ATOM     17  C   UNL d   1     -55.026-100.341 -43.066  0.00  0.00     0.030 A 
ATOM     18  C   UNL d   1     -55.211-100.590 -43.837  0.00  0.00     0.140 A 
ATOM     19  C   UNL d   1     -55.270-101.402 -43.999  0.00  0.00     0.030 A 
ATOM     20  F   UNL d   1     -55.334-100.042 -44.423  0.00  0.00    -0.204 F 
ATOM     21  C   UNL d   1     -55.144-101.955 -43.400  0.00  0.00     0.016 A 
ENDBRANCH  12  15
ENDBRANCH  11  12
ENDBRANCH   8  11
BRANCH   1  22
ATOM     22  C   UNL d   1     -58.101-102.543 -38.808  0.00  0.00     0.029 C 
BRANCH  22  23
ATOM     23  C   UNL d   1     -58.675-102.025 -39.104  0.00  0.00     0.021 A 
ATOM     24  C   UNL d   1     -58.521-101.608 -39.793  0.00  0.00     0.099 A 
ATOM     25  N   UNL d   1     -59.080-101.092 -40.096  0.00  0.00    -0.242 NA
ATOM     26  C   UNL d   1     -59.809-100.992 -39.702  0.00  0.00     0.099 A 
ATOM     27  C   UNL d   1     -59.959-101.415 -39.008  0.00  0.00     0.021 A 
ATOM     28  C   UNL d   1     -59.385-101.932 -38.713  0.00  0.00     0.003 A 
ENDBRANCH  22  23
ENDBRANCH   1  22
TORSDOF 5
ENDMDL
