MODEL 1
REMARK VINA RESULT:      -6.9      0.000      0.000
REMARK  3 active torsions:
REMARK  status: ('A' for Active; 'I' for Inactive)
REMARK    1  A    between atoms: S_11  and  C_1 
REMARK    2  A    between atoms: C_7  and  C_13 
REMARK    3  A    between atoms: C_13  and  S_11 
ROOT
ATOM      1  C   UNL d   1     -48.549  14.055  22.938  0.00  0.00     0.141 A 
ATOM      2  N   UNL d   1     -48.626  14.872  23.020  0.00  0.00    -0.232 NA
ATOM      3  S   UNL d   1     -49.277  13.714  23.080  0.00  0.00    -0.060 SA
ATOM      4  C   UNL d   1     -49.409  15.039  23.215  0.00  0.00     0.088 A 
ATOM      5  C   UNL d   1     -49.821  14.312  23.253  0.00  0.00     0.049 A 
ATOM      6  C   UNL d   1     -49.811  15.743  23.363  0.00  0.00     0.020 A 
ATOM      7  C   UNL d   1     -50.620  14.302  23.438  0.00  0.00     0.008 A 
ATOM      8  C   UNL d   1     -51.026  15.008  23.588  0.00  0.00     0.001 A 
ATOM      9  C   UNL d   1     -50.619  15.733  23.550  0.00  0.00     0.002 A 
ENDROOT
BRANCH   1  10
ATOM     10  S   UNL d   1     -47.851  13.656  22.745  0.00  0.00    -0.057 SA
BRANCH  10  11
ATOM     11  C   UNL d   1     -47.135  13.899  23.074  0.00  0.00     0.084 C 
BRANCH  11  12
ATOM     12  C   UNL d   1     -46.451  13.477  22.922  0.00  0.00     0.212 A 
ATOM     13  O   UNL d   1     -45.950  13.574  22.276  0.00  0.00    -0.259 OA
ATOM     14  C   UNL d   1     -45.331  13.035  22.345  0.00  0.00     0.262 A 
ATOM     15  S   UNL d   1     -44.710  12.949  21.817  0.00  0.00    -0.029 SA
ATOM     16  N   UNL d   1     -45.447  12.602  23.034  0.00  0.00    -0.109 NA
ATOM     17  N   UNL d   1     -46.139  12.872  23.394  0.00  0.00    -0.119 NA
ENDBRANCH  11  12
ENDBRANCH  10  11
ENDBRANCH   1  10
TORSDOF 3
ENDMDL
MODEL 2
REMARK VINA RESULT:      -6.8      1.438      1.614
REMARK  3 active torsions:
REMARK  status: ('A' for Active; 'I' for Inactive)
REMARK    1  A    between atoms: S_11  and  C_1 
REMARK    2  A    between atoms: C_7  and  C_13 
REMARK    3  A    between atoms: C_13  and  S_11 
ROOT
ATOM      1  C   UNL d   1     -47.706  13.581  22.690  0.00  0.00     0.141 A 
ATOM      2  N   UNL d   1     -47.855  14.335  22.989  0.00  0.00    -0.232 NA
ATOM      3  S   UNL d   1     -48.376  13.320  22.303  0.00  0.00    -0.060 SA
ATOM      4  C   UNL d   1     -48.626  14.544  22.785  0.00  0.00     0.088 A 
ATOM      5  C   UNL d   1     -48.956  13.907  22.353  0.00  0.00     0.049 A 
ATOM      6  C   UNL d   1     -49.079  15.218  22.926  0.00  0.00     0.020 A 
ATOM      7  C   UNL d   1     -49.725  13.957  22.074  0.00  0.00     0.008 A 
ATOM      8  C   UNL d   1     -50.183  14.633  22.215  0.00  0.00     0.001 A 
ATOM      9  C   UNL d   1     -49.857  15.267  22.644  0.00  0.00     0.002 A 
ENDROOT
BRANCH   1  10
ATOM     10  S   UNL d   1     -46.996  13.165  22.771  0.00  0.00    -0.057 SA
BRANCH  10  11
ATOM     11  C   UNL d   1     -46.919  12.598  23.366  0.00  0.00     0.084 C 
BRANCH  11  12
ATOM     12  C   UNL d   1     -46.260  12.115  23.387  0.00  0.00     0.212 A 
ATOM     13  O   UNL d   1     -46.246  11.317  23.594  0.00  0.00    -0.259 OA
ATOM     14  C   UNL d   1     -45.468  11.050  23.539  0.00  0.00     0.262 A 
ATOM     15  S   UNL d   1     -45.211  10.287  23.698  0.00  0.00    -0.029 SA
ATOM     16  N   UNL d   1     -44.999  11.682  23.299  0.00  0.00    -0.109 NA
ATOM     17  N   UNL d   1     -45.484  12.342  23.204  0.00  0.00    -0.119 NA
ENDBRANCH  11  12
ENDBRANCH  10  11
ENDBRANCH   1  10
TORSDOF 3
ENDMDL
MODEL 3
REMARK VINA RESULT:      -6.2      1.326      1.618
REMARK  3 active torsions:
REMARK  status: ('A' for Active; 'I' for Inactive)
REMARK    1  A    between atoms: S_11  and  C_1 
REMARK    2  A    between atoms: C_7  and  C_13 
REMARK    3  A    between atoms: C_13  and  S_11 
ROOT
ATOM      1  C   UNL d   1     -48.336  12.452  23.318  0.00  0.00     0.141 A 
ATOM      2  N   UNL d   1     -48.697  13.192  23.274  0.00  0.00    -0.232 NA
ATOM      3  S   UNL d   1     -48.918  11.886  23.401  0.00  0.00    -0.060 SA
ATOM      4  C   UNL d   1     -49.512  13.084  23.330  0.00  0.00     0.088 A 
ATOM      5  C   UNL d   1     -49.654  12.263  23.410  0.00  0.00     0.049 A 
ATOM      6  C   UNL d   1     -50.148  13.608  23.321  0.00  0.00     0.020 A 
ATOM      7  C   UNL d   1     -50.423  11.985  23.478  0.00  0.00     0.008 A 
ATOM      8  C   UNL d   1     -51.064  12.509  23.469  0.00  0.00     0.001 A 
ATOM      9  C   UNL d   1     -50.925  13.326  23.390  0.00  0.00     0.002 A 
ENDROOT
BRANCH   1  10
ATOM     10  S   UNL d   1     -47.522  12.313  23.283  0.00  0.00    -0.057 SA
BRANCH  10  11
ATOM     11  C   UNL d   1     -47.004  12.942  23.157  0.00  0.00     0.084 C 
BRANCH  11  12
ATOM     12  C   UNL d   1     -46.225  12.796  22.951  0.00  0.00     0.212 A 
ATOM     13  O   UNL d   1     -45.806  13.156  22.340  0.00  0.00    -0.259 OA
ATOM     14  C   UNL d   1     -45.044  12.843  22.331  0.00  0.00     0.262 A 
ATOM     15  S   UNL d   1     -44.447  13.051  21.808  0.00  0.00    -0.029 SA
ATOM     16  N   UNL d   1     -44.989  12.289  22.936  0.00  0.00    -0.109 NA
ATOM     17  N   UNL d   1     -45.718  12.257  23.322  0.00  0.00    -0.119 NA
ENDBRANCH  11  12
ENDBRANCH  10  11
ENDBRANCH   1  10
TORSDOF 3
ENDMDL
MODEL 4
REMARK VINA RESULT:      -5.7      1.536      4.465
REMARK  3 active torsions:
REMARK  status: ('A' for Active; 'I' for Inactive)
REMARK    1  A    between atoms: S_11  and  C_1 
REMARK    2  A    between atoms: C_7  and  C_13 
REMARK    3  A    between atoms: C_13  and  S_11 
ROOT
ATOM      1  C   UNL d   1     -47.383  13.744  22.959  0.00  0.00     0.141 A 
ATOM      2  N   UNL d   1     -46.770  14.061  22.507  0.00  0.00    -0.232 NA
ATOM      3  S   UNL d   1     -47.156  13.003  23.215  0.00  0.00    -0.060 SA
ATOM      4  C   UNL d   1     -46.157  13.512  22.482  0.00  0.00     0.088 A 
ATOM      5  C   UNL d   1     -46.397  12.844  22.927  0.00  0.00     0.049 A 
ATOM      6  C   UNL d   1     -45.416  13.516  22.123  0.00  0.00     0.020 A 
ATOM      7  C   UNL d   1     -45.895  12.200  23.003  0.00  0.00     0.008 A 
ATOM      8  C   UNL d   1     -45.150  12.202  22.643  0.00  0.00     0.001 A 
ATOM      9  C   UNL d   1     -44.909  12.863  22.200  0.00  0.00     0.002 A 
ENDROOT
BRANCH   1  10
ATOM     10  S   UNL d   1     -48.102  14.118  23.121  0.00  0.00    -0.057 SA
BRANCH  10  11
ATOM     11  C   UNL d   1     -48.499  14.521  22.521  0.00  0.00     0.084 C 
BRANCH  11  12
ATOM     12  C   UNL d   1     -49.203  14.905  22.683  0.00  0.00     0.212 A 
ATOM     13  O   UNL d   1     -49.760  14.687  23.250  0.00  0.00    -0.259 OA
ATOM     14  C   UNL d   1     -50.381  15.227  23.224  0.00  0.00     0.262 A 
ATOM     15  S   UNL d   1     -51.050  15.211  23.698  0.00  0.00    -0.029 SA
ATOM     16  N   UNL d   1     -50.211  15.782  22.641  0.00  0.00    -0.109 NA
ATOM     17  N   UNL d   1     -49.483  15.587  22.304  0.00  0.00    -0.119 NA
ENDBRANCH  11  12
ENDBRANCH  10  11
ENDBRANCH   1  10
TORSDOF 3
ENDMDL
MODEL 5
REMARK VINA RESULT:      -5.2      8.762      9.310
REMARK  3 active torsions:
REMARK  status: ('A' for Active; 'I' for Inactive)
REMARK    1  A    between atoms: S_11  and  C_1 
REMARK    2  A    between atoms: C_7  and  C_13 
REMARK    3  A    between atoms: C_13  and  S_11 
ROOT
ATOM      1  C   UNL d   1     -39.916  14.731  20.806  0.00  0.00     0.141 A 
ATOM      2  N   UNL d   1     -39.707  14.018  21.163  0.00  0.00    -0.232 NA
ATOM      3  S   UNL d   1     -39.679  15.341  21.293  0.00  0.00    -0.060 SA
ATOM      4  C   UNL d   1     -39.337  14.187  21.879  0.00  0.00     0.088 A 
ATOM      5  C   UNL d   1     -39.318  15.020  21.964  0.00  0.00     0.049 A 
ATOM      6  C   UNL d   1     -39.014  13.710  22.469  0.00  0.00     0.020 A 
ATOM      7  C   UNL d   1     -38.980  15.356  22.631  0.00  0.00     0.008 A 
ATOM      8  C   UNL d   1     -38.655  14.880  23.225  0.00  0.00     0.001 A 
ATOM      9  C   UNL d   1     -38.672  14.052  23.143  0.00  0.00     0.002 A 
ENDROOT
BRANCH   1  10
ATOM     10  S   UNL d   1     -40.299  14.809  20.077  0.00  0.00    -0.057 SA
BRANCH  10  11
ATOM     11  C   UNL d   1     -40.008  14.410  19.416  0.00  0.00     0.084 C 
BRANCH  11  12
ATOM     12  C   UNL d   1     -40.360  14.518  18.686  0.00  0.00     0.212 A 
ATOM     13  O   UNL d   1     -40.349  15.208  18.236  0.00  0.00    -0.259 OA
ATOM     14  C   UNL d   1     -40.771  15.070  17.542  0.00  0.00     0.262 A 
ATOM     15  S   UNL d   1     -40.895  15.614  16.940  0.00  0.00    -0.029 SA
ATOM     16  N   UNL d   1     -41.045  14.295  17.560  0.00  0.00    -0.109 NA
ATOM     17  N   UNL d   1     -40.793  13.950  18.266  0.00  0.00    -0.119 NA
ENDBRANCH  11  12
ENDBRANCH  10  11
ENDBRANCH   1  10
TORSDOF 3
ENDMDL
MODEL 6
REMARK VINA RESULT:      -4.6      8.295      9.882
REMARK  3 active torsions:
REMARK  status: ('A' for Active; 'I' for Inactive)
REMARK    1  A    between atoms: S_11  and  C_1 
REMARK    2  A    between atoms: C_7  and  C_13 
REMARK    3  A    between atoms: C_13  and  S_11 
ROOT
ATOM      1  C   UNL d   1     -39.776  15.149  18.710  0.00  0.00     0.141 A 
ATOM      2  N   UNL d   1     -40.008  14.461  19.101  0.00  0.00    -0.232 NA
ATOM      3  S   UNL d   1     -40.083  15.789  19.112  0.00  0.00    -0.060 SA
ATOM      4  C   UNL d   1     -40.462  14.677  19.754  0.00  0.00     0.088 A 
ATOM      5  C   UNL d   1     -40.511  15.513  19.763  0.00  0.00     0.049 A 
ATOM      6  C   UNL d   1     -40.840  14.241  20.342  0.00  0.00     0.020 A 
ATOM      7  C   UNL d   1     -40.933  15.892  20.355  0.00  0.00     0.008 A 
ATOM      8  C   UNL d   1     -41.314  15.456  20.947  0.00  0.00     0.001 A 
ATOM      9  C   UNL d   1     -41.267  14.626  20.940  0.00  0.00     0.002 A 
ENDROOT
BRANCH   1  10
ATOM     10  S   UNL d   1     -39.312  15.178  18.026  0.00  0.00    -0.057 SA
BRANCH  10  11
ATOM     11  C   UNL d   1     -39.433  14.627  17.425  0.00  0.00     0.084 C 
BRANCH  11  12
ATOM     12  C   UNL d   1     -38.915  14.591  16.792  0.00  0.00     0.212 A 
ATOM     13  O   UNL d   1     -38.791  13.943  16.299  0.00  0.00    -0.259 OA
ATOM     14  C   UNL d   1     -38.224  14.151  15.738  0.00  0.00     0.262 A 
ATOM     15  S   UNL d   1     -37.940  13.664  15.142  0.00  0.00    -0.029 SA
ATOM     16  N   UNL d   1     -37.996  14.927  15.883  0.00  0.00    -0.109 NA
ATOM     17  N   UNL d   1     -38.421  15.203  16.534  0.00  0.00    -0.119 NA
ENDBRANCH  11  12
ENDBRANCH  10  11
ENDBRANCH   1  10
TORSDOF 3
ENDMDL
MODEL 7
REMARK VINA RESULT:      -4.4      8.771     10.567
REMARK  3 active torsions:
REMARK  status: ('A' for Active; 'I' for Inactive)
REMARK    1  A    between atoms: S_11  and  C_1 
REMARK    2  A    between atoms: C_7  and  C_13 
REMARK    3  A    between atoms: C_13  and  S_11 
ROOT
ATOM      1  C   UNL d   1     -39.429  14.319  18.203  0.00  0.00     0.141 A 
ATOM      2  N   UNL d   1     -38.952  13.650  18.134  0.00  0.00    -0.232 NA
ATOM      3  S   UNL d   1     -39.435  14.706  17.484  0.00  0.00    -0.060 SA
ATOM      4  C   UNL d   1     -38.660  13.621  17.364  0.00  0.00     0.088 A 
ATOM      5  C   UNL d   1     -38.962  14.285  16.953  0.00  0.00     0.049 A 
ATOM      6  C   UNL d   1     -38.163  13.091  16.973  0.00  0.00     0.020 A 
ATOM      7  C   UNL d   1     -38.763  14.405  16.166  0.00  0.00     0.008 A 
ATOM      8  C   UNL d   1     -38.265  13.874  15.771  0.00  0.00     0.001 A 
ATOM      9  C   UNL d   1     -37.963  13.214  16.178  0.00  0.00     0.002 A 
ENDROOT
BRANCH   1  10
ATOM     10  S   UNL d   1     -39.830  14.553  18.887  0.00  0.00    -0.057 SA
BRANCH  10  11
ATOM     11  C   UNL d   1     -39.611  15.249  19.273  0.00  0.00     0.084 C 
BRANCH  11  12
ATOM     12  C   UNL d   1     -39.858  15.386  20.041  0.00  0.00     0.212 A 
ATOM     13  O   UNL d   1     -39.383  15.613  20.673  0.00  0.00    -0.259 OA
ATOM     14  C   UNL d   1     -39.860  15.688  21.341  0.00  0.00     0.262 A 
ATOM     15  S   UNL d   1     -39.605  15.906  22.090  0.00  0.00    -0.029 SA
ATOM     16  N   UNL d   1     -40.632  15.508  21.123  0.00  0.00    -0.109 NA
ATOM     17  N   UNL d   1     -40.635  15.320  20.320  0.00  0.00    -0.119 NA
ENDBRANCH  11  12
ENDBRANCH  10  11
ENDBRANCH   1  10
TORSDOF 3
ENDMDL
