MODEL 1
REMARK VINA RESULT:      19.9      0.000      0.000
REMARK  3 active torsions:
REMARK  status: ('A' for Active; 'I' for Inactive)
REMARK    1  A    between atoms: N_10  and  C_7 
REMARK       I    between atoms: C_9  and  N_10 
REMARK    2  A    between atoms: C_12  and  C_9 
REMARK    3  A    between atoms: O_20  and  C_17 
ROOT
ATOM      1  C   UNL d   1      46.469 -18.956  43.567  0.00  0.00     0.081 A 
ATOM      2  C   UNL d   1      46.464 -19.757  43.394  0.00  0.00     0.301 A 
ATOM      3  C   UNL d   1      46.513 -18.389  42.973  0.00  0.00     0.090 A 
ATOM      4  O   UNL d   1      46.504 -20.001  42.599  0.00  0.00    -0.273 OA
ATOM      5  N   UNL d   1      46.517 -17.584  43.160  0.00  0.00    -0.226 NA
ATOM      6  C   UNL d   1      46.553 -18.635  42.186  0.00  0.00     0.041 A 
ATOM      7  C   UNL d   1      46.476 -17.349  43.957  0.00  0.00     0.166 A 
ATOM      8  C   UNL d   1      46.428 -18.715  44.361  0.00  0.00     0.010 A 
ATOM      9  C   UNL d   1      46.549 -19.441  41.995  0.00  0.00     0.105 A 
ATOM     10  C   UNL d   1      46.432 -17.912  44.556  0.00  0.00     0.039 A 
ATOM     11  O   UNL d   1      46.419 -20.325  43.997  0.00  0.00    -0.259 OA
ATOM     12  C   UNL d   1      46.597 -18.071  41.583  0.00  0.00     0.004 A 
ATOM     13  C   UNL d   1      46.384 -19.286  44.954  0.00  0.00     0.000 C 
ATOM     14  C   UNL d   1      46.588 -19.684  41.217  0.00  0.00     0.025 A 
ATOM     15  C   UNL d   1      46.637 -18.321  40.799  0.00  0.00     0.000 A 
ATOM     16  C   UNL d   1      46.633 -19.129  40.616  0.00  0.00     0.002 A 
ENDROOT
BRANCH   7  17
ATOM     17  N   UNL d   1      46.480 -16.535  44.149  0.00  0.00    -0.189 NA
ATOM     18  C   UNL d   1      45.773 -16.114  44.157  0.00  0.00     0.281 C 
ATOM     19  O   UNL d   1      45.058 -16.498  43.973  0.00  0.00    -0.265 OA
BRANCH  18  20
ATOM     20  C   UNL d   1      45.772 -15.322  44.343  0.00  0.00     0.060 A 
ATOM     21  C   UNL d   1      45.155 -14.856  44.123  0.00  0.00     0.029 A 
ATOM     22  C   UNL d   1      45.155 -14.047  44.314  0.00  0.00     0.094 A 
ATOM     23  C   UNL d   1      45.775 -13.715  44.724  0.00  0.00     0.024 A 
ATOM     24  C   UNL d   1      46.414 -14.205  44.950  0.00  0.00     0.002 A 
ATOM     25  C   UNL d   1      46.411 -15.001  44.761  0.00  0.00     0.005 A 
BRANCH  22  26
ATOM     26  O   UNL d   1      44.515 -13.569  44.084  0.00  0.00    -0.328 OA
ATOM     27  C   UNL d   1      44.178 -13.661  43.321  0.00  0.00     0.181 C 
ENDBRANCH  22  26
ENDBRANCH  18  20
ENDBRANCH   7  17
TORSDOF 3
ENDMDL
