MODEL 1
REMARK VINA RESULT:      -3.9      0.000      0.000
REMARK  5 active torsions:
REMARK  status: ('A' for Active; 'I' for Inactive)
REMARK    1  A    between atoms: S_10  and  C_6 
REMARK    2  A    between atoms: C_15  and  S_10 
REMARK    3  A    between atoms: C_12  and  C_15 
REMARK       I    between atoms: N_16  and  C_12 
REMARK    4  A    between atoms: C_14  and  C_20 
REMARK    5  A    between atoms: C_20  and  N_16 
ROOT
ATOM      1  C   UNL d   1     -42.011-121.807 -53.917  0.00  0.00     0.117 A 
ATOM      2  C   UNL d   1     -41.756-122.536 -54.177  0.00  0.00     0.082 A 
ATOM      3  N   UNL d   1     -41.891-121.587 -53.117  0.00  0.00    -0.214 NA
ATOM      4  C   UNL d   1     -41.384-123.058 -53.668  0.00  0.00     0.283 A 
ATOM      5  N   UNL d   1     -41.264-122.838 -52.868  0.00  0.00    -0.183 NA
ATOM      6  C   UNL d   1     -41.520-122.106 -52.609  0.00  0.00     0.198 A 
ATOM      7  S   UNL d   1     -42.360-121.414 -54.554  0.00  0.00    -0.068 SA
ATOM      8  C   UNL d   1     -41.948-122.591 -54.972  0.00  0.00     0.013 A 
ATOM      9  C   UNL d   1     -42.327-121.895 -55.222  0.00  0.00     0.031 A 
ATOM     10  O   UNL d   1     -41.123-123.813 -53.946  0.00  0.00    -0.265 OA
ATOM     11  C   UNL d   1     -41.793-123.243 -55.471  0.00  0.00     0.001 C 
ATOM     12  C   UNL d   1     -42.614-121.725 -55.997  0.00  0.00     0.007 C 
ENDROOT
BRANCH   6  13
ATOM     13  S   UNL d   1     -41.401-121.888 -51.814  0.00  0.00    -0.043 SA
BRANCH  13  14
ATOM     14  C   UNL d   1     -41.776-122.304 -51.221  0.00  0.00     0.101 C 
BRANCH  14  15
ATOM     15  C   UNL d   1     -41.641-122.090 -50.403  0.00  0.00     0.286 C 
ATOM     16  O   UNL d   1     -41.127-121.464 -50.226  0.00  0.00    -0.265 OA
ATOM     17  N   UNL d   1     -42.019-122.502 -49.807  0.00  0.00    -0.206 NA
BRANCH  17  18
ATOM     18  C   UNL d   1     -42.526-123.121 -49.987  0.00  0.00     0.102 C 
BRANCH  18  19
ATOM     19  C   UNL d   1     -43.124-123.328 -49.471  0.00  0.00     0.021 C 
ATOM     20  C   UNL d   1     -42.952-123.723 -48.767  0.00  0.00     0.002 C 
ENDBRANCH  18  19
ENDBRANCH  17  18
ENDBRANCH  14  15
ENDBRANCH  13  14
ENDBRANCH   6  13
TORSDOF 5
ENDMDL
MODEL 2
REMARK VINA RESULT:      -3.8      1.486      4.962
REMARK  5 active torsions:
REMARK  status: ('A' for Active; 'I' for Inactive)
REMARK    1  A    between atoms: S_10  and  C_6 
REMARK    2  A    between atoms: C_15  and  S_10 
REMARK    3  A    between atoms: C_12  and  C_15 
REMARK       I    between atoms: N_16  and  C_12 
REMARK    4  A    between atoms: C_14  and  C_20 
REMARK    5  A    between atoms: C_20  and  N_16 
ROOT
ATOM      1  C   UNL d   1     -41.571-122.989 -49.160  0.00  0.00     0.117 A 
ATOM      2  C   UNL d   1     -42.340-123.248 -49.229  0.00  0.00     0.082 A 
ATOM      3  N   UNL d   1     -41.159-122.731 -49.843  0.00  0.00    -0.214 NA
ATOM      4  C   UNL d   1     -42.717-123.261 -49.954  0.00  0.00     0.283 A 
ATOM      5  N   UNL d   1     -42.305-123.003 -50.637  0.00  0.00    -0.183 NA
ATOM      6  C   UNL d   1     -41.533-122.743 -50.568  0.00  0.00     0.198 A 
ATOM      7  S   UNL d   1     -41.350-123.042 -48.367  0.00  0.00    -0.068 SA
ATOM      8  C   UNL d   1     -42.592-123.460 -48.478  0.00  0.00     0.013 A 
ATOM      9  C   UNL d   1     -41.982-123.337 -47.927  0.00  0.00     0.031 A 
ATOM     10  O   UNL d   1     -43.517-123.531 -50.017  0.00  0.00    -0.265 OA
ATOM     11  C   UNL d   1     -43.347-123.759 -48.279  0.00  0.00     0.001 C 
ATOM     12  C   UNL d   1     -42.011-123.484 -47.097  0.00  0.00     0.007 C 
ENDROOT
BRANCH   6  13
ATOM     13  S   UNL d   1     -41.123-122.487 -51.247  0.00  0.00    -0.043 SA
BRANCH  13  14
ATOM     14  C   UNL d   1     -41.490-122.518 -51.974  0.00  0.00     0.101 C 
BRANCH  14  15
ATOM     15  C   UNL d   1     -41.312-121.923 -52.563  0.00  0.00     0.286 C 
ATOM     16  O   UNL d   1     -41.159-121.145 -52.323  0.00  0.00    -0.265 OA
ATOM     17  N   UNL d   1     -41.295-122.126 -53.355  0.00  0.00    -0.206 NA
BRANCH  17  18
ATOM     18  C   UNL d   1     -41.448-122.898 -53.588  0.00  0.00     0.102 C 
BRANCH  18  19
ATOM     19  C   UNL d   1     -41.676-123.059 -54.356  0.00  0.00     0.021 C 
ATOM     20  C   UNL d   1     -41.153-123.423 -54.881  0.00  0.00     0.002 C 
ENDBRANCH  18  19
ENDBRANCH  17  18
ENDBRANCH  14  15
ENDBRANCH  13  14
ENDBRANCH   6  13
TORSDOF 5
ENDMDL
MODEL 3
REMARK VINA RESULT:      -1.2      1.477      2.093
REMARK  5 active torsions:
REMARK  status: ('A' for Active; 'I' for Inactive)
REMARK    1  A    between atoms: S_10  and  C_6 
REMARK    2  A    between atoms: C_15  and  S_10 
REMARK    3  A    between atoms: C_12  and  C_15 
REMARK       I    between atoms: N_16  and  C_12 
REMARK    4  A    between atoms: C_14  and  C_20 
REMARK    5  A    between atoms: C_20  and  N_16 
ROOT
ATOM      1  C   UNL d   1     -41.800-122.865 -52.776  0.00  0.00     0.117 A 
ATOM      2  C   UNL d   1     -41.564-122.085 -52.746  0.00  0.00     0.082 A 
ATOM      3  N   UNL d   1     -41.843-123.311 -52.068  0.00  0.00    -0.214 NA
ATOM      4  C   UNL d   1     -41.368-121.731 -52.036  0.00  0.00     0.283 A 
ATOM      5  N   UNL d   1     -41.410-122.177 -51.327  0.00  0.00    -0.183 NA
ATOM      6  C   UNL d   1     -41.648-122.960 -51.358  0.00  0.00     0.198 A 
ATOM      7  S   UNL d   1     -41.957-123.057 -53.563  0.00  0.00    -0.068 SA
ATOM      8  C   UNL d   1     -41.576-121.799 -53.515  0.00  0.00     0.013 A 
ATOM      9  C   UNL d   1     -41.821-122.397 -54.038  0.00  0.00     0.031 A 
ATOM     10  O   UNL d   1     -41.123-120.921 -52.013  0.00  0.00    -0.265 OA
ATOM     11  C   UNL d   1     -41.376-121.024 -53.754  0.00  0.00     0.001 C 
ATOM     12  C   UNL d   1     -41.909-122.334 -54.874  0.00  0.00     0.007 C 
ENDROOT
BRANCH   6  13
ATOM     13  S   UNL d   1     -41.690-123.403 -50.654  0.00  0.00    -0.043 SA
BRANCH  13  14
ATOM     14  C   UNL d   1     -41.986-123.057 -49.977  0.00  0.00     0.101 C 
BRANCH  14  15
ATOM     15  C   UNL d   1     -42.546-123.487 -49.493  0.00  0.00     0.286 C 
ATOM     16  O   UNL d   1     -43.222-123.813 -49.844  0.00  0.00    -0.265 OA
ATOM     17  N   UNL d   1     -42.410-123.571 -48.691  0.00  0.00    -0.206 NA
BRANCH  17  18
ATOM     18  C   UNL d   1     -41.740-123.246 -48.347  0.00  0.00     0.102 C 
BRANCH  18  19
ATOM     19  C   UNL d   1     -41.583-123.366 -47.555  0.00  0.00     0.021 C 
ATOM     20  C   UNL d   1     -41.125-122.826 -47.131  0.00  0.00     0.002 C 
ENDBRANCH  18  19
ENDBRANCH  17  18
ENDBRANCH  14  15
ENDBRANCH  13  14
ENDBRANCH   6  13
TORSDOF 5
ENDMDL
