MODEL 1
REMARK VINA RESULT:      27.3      0.000      0.000
REMARK  10 active torsions:
REMARK  status: ('A' for Active; 'I' for Inactive)
REMARK    1  A    between atoms: P_2  and  C_1 
REMARK    2  A    between atoms: N_3  and  C_1 
REMARK    3  A    between atoms: C_4  and  C_1 
REMARK    4  A    between atoms: O_9  and  P_2 
REMARK    5  A    between atoms: O_10  and  P_2 
REMARK       I    between atoms: C_5  and  N_3 
REMARK    6  A    between atoms: C_8  and  C_5 
REMARK    7  A    between atoms: C_16  and  O_9 
REMARK    8  A    between atoms: C_15  and  O_10 
REMARK    9  A    between atoms: C_18  and  C_15 
REMARK   10  A    between atoms: C_17  and  C_16 
ROOT
ATOM      1  C   UNL d   1      14.410  13.059  -0.799  0.00  0.00     0.186 C 
ENDROOT
BRANCH   1   2
ATOM      2  P   UNL d   1      15.106  13.440  -0.535  0.00  0.00     0.393 P 
ATOM      3  O   UNL d   1      15.782  13.831  -0.271  0.00  0.00    -0.251 OA
BRANCH   2   4
ATOM      4  O   UNL d   1      14.659  14.118  -0.396  0.00  0.00    -0.263 OA
BRANCH   4   5
ATOM      5  C   UNL d   1      15.024  14.790  -0.074  0.00  0.00     0.126 C 
BRANCH   5   6
ATOM      6  C   UNL d   1      14.819  15.558  -0.333  0.00  0.00     0.027 C 
ATOM      7  C   UNL d   1      15.310  16.221  -0.677  0.00  0.00     0.002 C 
ENDBRANCH   5   6
ENDBRANCH   4   5
ENDBRANCH   2   4
BRANCH   2   8
ATOM      8  O   UNL d   1      15.564  12.781  -0.665  0.00  0.00    -0.263 OA
BRANCH   8   9
ATOM      9  C   UNL d   1      16.023  12.738  -1.342  0.00  0.00     0.126 C 
BRANCH   9  10
ATOM     10  C   UNL d   1      16.286  11.999  -1.619  0.00  0.00     0.027 C 
ATOM     11  C   UNL d   1      16.903  11.779  -1.198  0.00  0.00     0.002 C 
ENDBRANCH   9  10
ENDBRANCH   8   9
ENDBRANCH   2   8
ENDBRANCH   1   2
BRANCH   1  12
ATOM     12  N   UNL d   1      14.223  13.100  -1.613  0.00  0.00    -0.199 NA
ATOM     13  C   UNL d   1      13.738  12.500  -1.936  0.00  0.00     0.279 C 
ATOM     14  O   UNL d   1      13.459  11.899  -1.476  0.00  0.00    -0.265 OA
BRANCH  13  15
ATOM     15  C   UNL d   1      13.532  12.501  -2.719  0.00  0.00     0.058 A 
ATOM     16  C   UNL d   1      13.390  11.784  -3.101  0.00  0.00     0.005 A 
ATOM     17  C   UNL d   1      13.181  11.789  -3.895  0.00  0.00     0.000 A 
ATOM     18  C   UNL d   1      13.116  12.514  -4.307  0.00  0.00     0.000 A 
ATOM     19  C   UNL d   1      13.256  13.220  -3.931  0.00  0.00     0.000 A 
ATOM     20  C   UNL d   1      13.468  13.222  -3.127  0.00  0.00     0.005 A 
ENDBRANCH  13  15
ENDBRANCH   1  12
BRANCH   1  21
ATOM     21  C   UNL d   1      13.929  12.660  -0.279  0.00  0.00     0.140 C 
ATOM     22 CL   UNL d   1      13.338  13.072  -0.015  0.00  0.00    -0.068 Cl
ATOM     23 CL   UNL d   1      14.099  11.829  -0.059  0.00  0.00    -0.068 Cl
ENDBRANCH   1  21
TORSDOF 10
ENDMDL
