MODEL 1
REMARK VINA RESULT:      26.7      0.000      0.000
REMARK  4 active torsions:
REMARK  status: ('A' for Active; 'I' for Inactive)
REMARK    1  A    between atoms: C_3  and  N_1 
REMARK    2  A    between atoms: C_6  and  C_3 
REMARK    3  A    between atoms: C_9  and  C_3 
REMARK    4  A    between atoms: N_5  and  C_6 
ROOT
ATOM      1  C   UNL d   1      14.235  12.999  -2.350  0.00  0.00     0.106 C 
ENDROOT
BRANCH   1   2
ATOM      2  N   UNL d   1      14.051  12.586  -1.659  0.00  0.00    -0.228 N 
ATOM      3  N   UNL d   1      13.338  12.492  -1.242  0.00  0.00    -0.165 NA
ATOM      4  C   UNL d   1      13.501  12.015  -0.587  0.00  0.00     0.103 A 
ATOM      5  C   UNL d   1      12.937  11.779  -0.015  0.00  0.00     0.022 C 
ATOM      6  C   UNL d   1      14.282  11.818  -0.592  0.00  0.00     0.040 A 
ATOM      7  C   UNL d   1      14.630  12.168  -1.253  0.00  0.00     0.085 A 
ATOM      8  C   UNL d   1      15.436  12.113  -1.481  0.00  0.00     0.021 C 
ENDBRANCH   1   2
BRANCH   1   9
ATOM      9  C   UNL d   1      14.766  13.624  -2.317  0.00  0.00     0.167 C 
BRANCH   9  10
ATOM     10  N   UNL d   1      14.520  14.388  -2.119  0.00  0.00    -0.111 N 
ATOM     11  O   UNL d   1      13.998  14.511  -1.488  0.00  0.00    -0.532 OA
ATOM     12  O   UNL d   1      14.802  15.028  -2.558  0.00  0.00    -0.532 OA
ENDBRANCH   9  10
ENDBRANCH   1   9
BRANCH   1  13
ATOM     13  C   UNL d   1      13.880  12.772  -3.061  0.00  0.00     0.019 A 
ATOM     14  C   UNL d   1      13.525  12.037  -3.113  0.00  0.00     0.002 A 
ATOM     15  C   UNL d   1      13.162  11.787  -3.819  0.00  0.00     0.011 A 
ATOM     16  C   UNL d   1      13.173  12.321  -4.476  0.00  0.00     0.058 A 
ATOM     17  C   UNL d   1      13.525  13.039  -4.410  0.00  0.00     0.011 A 
ATOM     18 CL   UNL d   1      12.825  12.114  -5.195  0.00  0.00    -0.082 Cl
ATOM     19  C   UNL d   1      13.877  13.269  -3.714  0.00  0.00     0.002 A 
ENDBRANCH   1  13
TORSDOF 4
ENDMDL
MODEL 2
REMARK VINA RESULT:      27.8      1.917      2.461
REMARK  4 active torsions:
REMARK  status: ('A' for Active; 'I' for Inactive)
REMARK    1  A    between atoms: C_3  and  N_1 
REMARK    2  A    between atoms: C_6  and  C_3 
REMARK    3  A    between atoms: C_9  and  C_3 
REMARK    4  A    between atoms: N_5  and  C_6 
ROOT
ATOM      1  C   UNL d   1      13.681  12.559  -2.945  0.00  0.00     0.106 C 
ENDROOT
BRANCH   1   2
ATOM      2  N   UNL d   1      14.055  12.323  -2.248  0.00  0.00    -0.228 N 
ATOM      3  N   UNL d   1      14.846  12.380  -1.996  0.00  0.00    -0.165 NA
ATOM      4  C   UNL d   1      14.884  12.044  -1.242  0.00  0.00     0.103 A 
ATOM      5  C   UNL d   1      15.580  11.985  -0.780  0.00  0.00     0.022 C 
ATOM      6  C   UNL d   1      14.150  11.788  -1.029  0.00  0.00     0.040 A 
ATOM      7  C   UNL d   1      13.632  11.957  -1.648  0.00  0.00     0.085 A 
ATOM      8  C   UNL d   1      12.810  11.788  -1.670  0.00  0.00     0.021 C 
ENDBRANCH   1   2
BRANCH   1   9
ATOM      9  C   UNL d   1      13.287  12.001  -3.401  0.00  0.00     0.167 C 
BRANCH   9  10
ATOM     10  N   UNL d   1      13.458  11.901  -4.204  0.00  0.00    -0.111 N 
ATOM     11  O   UNL d   1      14.237  11.779  -4.454  0.00  0.00    -0.532 OA
ATOM     12  O   UNL d   1      12.841  11.925  -4.752  0.00  0.00    -0.532 OA
ENDBRANCH   9  10
ENDBRANCH   1   9
BRANCH   1  13
ATOM     13  C   UNL d   1      13.710  13.354  -3.169  0.00  0.00     0.019 A 
ATOM     14  C   UNL d   1      13.068  13.684  -3.555  0.00  0.00     0.002 A 
ATOM     15  C   UNL d   1      13.075  14.482  -3.790  0.00  0.00     0.011 A 
ATOM     16  C   UNL d   1      13.769  14.937  -3.615  0.00  0.00     0.058 A 
ATOM     17  C   UNL d   1      14.390  14.599  -3.236  0.00  0.00     0.011 A 
ATOM     18 CL   UNL d   1      13.818  15.732  -3.830  0.00  0.00    -0.082 Cl
ATOM     19  C   UNL d   1      14.368  13.818  -3.013  0.00  0.00     0.002 A 
ENDBRANCH   1  13
TORSDOF 4
ENDMDL
