MODEL 1
REMARK VINA RESULT:      45.3      0.000      0.000
REMARK  7 active torsions:
REMARK  status: ('A' for Active; 'I' for Inactive)
REMARK    1  A    between atoms: C_2  and  S_1 
REMARK    2  A    between atoms: N_6  and  S_1 
REMARK    3  A    between atoms: C_14  and  C_4 
REMARK    4  A    between atoms: O_15  and  C_5 
REMARK    5  A    between atoms: C_12  and  N_6 
REMARK    6  A    between atoms: C_13  and  C_12 
REMARK    7  A    between atoms: C_20  and  O_15 
ROOT
ATOM      1  C   UNL d   1      14.077  13.488  -2.570  0.00  0.00     0.128 A 
ATOM      2  C   UNL d   1      14.492  13.638  -1.873  0.00  0.00     0.015 A 
ATOM      3  C   UNL d   1      14.520  13.071  -1.279  0.00  0.00     0.001 A 
ATOM      4  C   UNL d   1      13.689  12.766  -2.669  0.00  0.00     0.112 A 
ATOM      5  C   UNL d   1      14.132  12.349  -1.378  0.00  0.00     0.002 A 
ATOM      6  C   UNL d   1      13.716  12.199  -2.075  0.00  0.00     0.025 A 
ATOM      7  C   UNL d   1      14.159  11.779  -0.781  0.00  0.00     0.000 C 
ENDROOT
BRANCH   1   8
ATOM      8  S   UNL d   1      14.049  14.058  -3.168  0.00  0.00     0.287 S 
ATOM      9  O   UNL d   1      14.864  14.178  -3.091  0.00  0.00    -0.198 OA
ATOM     10  O   UNL d   1      13.234  13.939  -3.244  0.00  0.00    -0.198 OA
BRANCH   8  11
ATOM     11  N   UNL d   1      14.021  14.629  -3.765  0.00  0.00    -0.155 NA
BRANCH  11  12
ATOM     12  C   UNL d   1      14.332  15.381  -3.633  0.00  0.00     0.131 C 
BRANCH  12  13
ATOM     13  C   UNL d   1      14.439  15.903  -4.266  0.00  0.00     0.101 A 
ATOM     14  N   UNL d   1      14.021  15.784  -4.963  0.00  0.00    -0.242 NA
ATOM     15  C   UNL d   1      14.122  16.299  -5.597  0.00  0.00     0.099 A 
ATOM     16  C   UNL d   1      14.650  16.940  -5.525  0.00  0.00     0.021 A 
ATOM     17  C   UNL d   1      15.066  17.054  -4.822  0.00  0.00     0.003 A 
ATOM     18  C   UNL d   1      14.961  16.537  -4.195  0.00  0.00     0.021 A 
ENDBRANCH  12  13
ENDBRANCH  11  12
ENDBRANCH   8  11
ENDBRANCH   1   8
BRANCH   4  19
ATOM     19  O   UNL d   1      13.271  12.613  -3.368  0.00  0.00    -0.304 OA
BRANCH  19  20
ATOM     20  C   UNL d   1      13.324  11.871  -3.726  0.00  0.00     0.123 C 
ATOM     21  C   UNL d   1      13.122  11.780  -4.528  0.00  0.00     0.029 C 
ENDBRANCH  19  20
ENDBRANCH   4  19
BRANCH   3  22
ATOM     22  C   UNL d   1      14.935  13.222  -0.582  0.00  0.00     0.000 C 
ATOM     23  C   UNL d   1      14.620  13.738  -0.020  0.00  0.00     0.000 C 
ATOM     24  C   UNL d   1      15.664  12.857  -0.447  0.00  0.00     0.000 C 
ENDBRANCH   3  22
TORSDOF 7
ENDMDL
