MODEL 1
REMARK VINA RESULT:      37.6      0.000      0.000
REMARK  4 active torsions:
REMARK  status: ('A' for Active; 'I' for Inactive)
REMARK       I    between atoms: N_3  and  C_1 
REMARK    1  A    between atoms: C_9  and  C_1 
REMARK    2  A    between atoms: C_2  and  N_3 
REMARK    3  A    between atoms: O_15  and  C_6 
REMARK    4  A    between atoms: O_16  and  C_8 
ROOT
ATOM      1  C   UNL d   1      14.190  13.018  -2.076  0.00  0.00     0.109 A 
ATOM      2  C   UNL d   1      14.499  13.424  -1.433  0.00  0.00     0.046 A 
ATOM      3  C   UNL d   1      14.333  11.780  -1.370  0.00  0.00     0.039 A 
ATOM      4  C   UNL d   1      14.108  12.189  -2.040  0.00  0.00     0.113 A 
ATOM      5  C   UNL d   1      14.649  12.193  -0.714  0.00  0.00     0.082 A 
ATOM      6  C   UNL d   1      14.728  13.014  -0.754  0.00  0.00     0.106 A 
ATOM      7 CL   UNL d   1      14.877  11.779  -0.036  0.00  0.00    -0.080 Cl
ENDROOT
BRANCH   1   8
ATOM      8  N   UNL d   1      13.962  13.429  -2.752  0.00  0.00    -0.206 NA
ATOM      9  C   UNL d   1      14.169  14.221  -2.839  0.00  0.00     0.279 C 
ATOM     10  O   UNL d   1      14.604  14.601  -2.251  0.00  0.00    -0.265 OA
BRANCH   9  11
ATOM     11  C   UNL d   1      13.946  14.639  -3.511  0.00  0.00     0.058 A 
ATOM     12  C   UNL d   1      14.224  15.406  -3.634  0.00  0.00     0.006 A 
ATOM     13  C   UNL d   1      14.001  15.828  -4.309  0.00  0.00     0.012 A 
ATOM     14  C   UNL d   1      13.497  15.474  -4.858  0.00  0.00     0.058 A 
ATOM     15  C   UNL d   1      13.217  14.705  -4.736  0.00  0.00     0.012 A 
ATOM     16 CL   UNL d   1      13.269  15.888  -5.535  0.00  0.00    -0.082 Cl
ATOM     17  C   UNL d   1      13.445  14.294  -4.062  0.00  0.00     0.006 A 
ENDBRANCH   9  11
ENDBRANCH   1   8
BRANCH   4  18
ATOM     18  O   UNL d   1      13.796  11.785  -2.689  0.00  0.00    -0.327 OA
ATOM     19  C   UNL d   1      12.981  11.791  -2.820  0.00  0.00     0.181 C 
ENDBRANCH   4  18
BRANCH   6  20
ATOM     20  O   UNL d   1      15.043  13.425  -0.101  0.00  0.00    -0.327 OA
ATOM     21  C   UNL d   1      15.044  14.246  -0.109  0.00  0.00     0.181 C 
ENDBRANCH   6  20
TORSDOF 4
ENDMDL
MODEL 2
REMARK VINA RESULT:      37.7      1.749      2.756
REMARK  4 active torsions:
REMARK  status: ('A' for Active; 'I' for Inactive)
REMARK       I    between atoms: N_3  and  C_1 
REMARK    1  A    between atoms: C_9  and  C_1 
REMARK    2  A    between atoms: C_2  and  N_3 
REMARK    3  A    between atoms: O_15  and  C_6 
REMARK    4  A    between atoms: O_16  and  C_8 
ROOT
ATOM      1  C   UNL d   1      14.628  14.379  -2.209  0.00  0.00     0.109 A 
ATOM      2  C   UNL d   1      14.646  13.973  -1.496  0.00  0.00     0.046 A 
ATOM      3  C   UNL d   1      15.157  15.545  -1.564  0.00  0.00     0.039 A 
ATOM      4  C   UNL d   1      14.886  15.172  -2.239  0.00  0.00     0.113 A 
ATOM      5  C   UNL d   1      15.175  15.130  -0.837  0.00  0.00     0.082 A 
ATOM      6  C   UNL d   1      14.919  14.346  -0.812  0.00  0.00     0.106 A 
ATOM      7 CL   UNL d   1      15.449  15.507  -0.154  0.00  0.00    -0.080 Cl
ENDROOT
BRANCH   1   8
ATOM      8  N   UNL d   1      14.356  14.005  -2.890  0.00  0.00    -0.206 NA
ATOM      9  C   UNL d   1      13.901  13.323  -2.828  0.00  0.00     0.279 C 
ATOM     10  O   UNL d   1      13.718  13.014  -2.085  0.00  0.00    -0.265 OA
BRANCH   9  11
ATOM     11  C   UNL d   1      13.625  12.943  -3.503  0.00  0.00     0.058 A 
ATOM     12  C   UNL d   1      13.083  13.318  -3.999  0.00  0.00     0.006 A 
ATOM     13  C   UNL d   1      12.804  12.938  -4.677  0.00  0.00     0.012 A 
ATOM     14  C   UNL d   1      13.075  12.179  -4.854  0.00  0.00     0.058 A 
ATOM     15  C   UNL d   1      13.618  11.801  -4.359  0.00  0.00     0.012 A 
ATOM     16 CL   UNL d   1      12.802  11.791  -5.531  0.00  0.00    -0.082 Cl
ATOM     17  C   UNL d   1      13.889  12.188  -3.686  0.00  0.00     0.006 A 
ENDBRANCH   9  11
ENDBRANCH   1   8
BRANCH   4  18
ATOM     18  O   UNL d   1      14.866  15.577  -2.958  0.00  0.00    -0.327 OA
ATOM     19  C   UNL d   1      15.134  16.357  -2.994  0.00  0.00     0.181 C 
ENDBRANCH   4  18
BRANCH   6  20
ATOM     20  O   UNL d   1      14.938  13.934  -0.088  0.00  0.00    -0.327 OA
ATOM     21  C   UNL d   1      14.521  13.230  -0.018  0.00  0.00     0.181 C 
ENDBRANCH   6  20
TORSDOF 4
ENDMDL
MODEL 3
REMARK VINA RESULT:      39.4      2.019      3.183
REMARK  4 active torsions:
REMARK  status: ('A' for Active; 'I' for Inactive)
REMARK       I    between atoms: N_3  and  C_1 
REMARK    1  A    between atoms: C_9  and  C_1 
REMARK    2  A    between atoms: C_2  and  N_3 
REMARK    3  A    between atoms: O_15  and  C_6 
REMARK    4  A    between atoms: O_16  and  C_8 
ROOT
ATOM      1  C   UNL d   1      13.707  13.930  -3.192  0.00  0.00     0.109 A 
ATOM      2  C   UNL d   1      13.839  13.211  -2.817  0.00  0.00     0.046 A 
ATOM      3  C   UNL d   1      12.996  13.258  -4.239  0.00  0.00     0.039 A 
ATOM      4  C   UNL d   1      13.282  13.949  -3.909  0.00  0.00     0.113 A 
ATOM      5  C   UNL d   1      13.130  12.525  -3.857  0.00  0.00     0.082 A 
ATOM      6  C   UNL d   1      13.552  12.511  -3.147  0.00  0.00     0.106 A 
ATOM      7 CL   UNL d   1      12.842  11.826  -4.190  0.00  0.00    -0.080 Cl
ENDROOT
BRANCH   1   8
ATOM      8  N   UNL d   1      13.994  14.626  -2.861  0.00  0.00    -0.206 NA
ATOM      9  C   UNL d   1      14.433  14.599  -2.165  0.00  0.00     0.279 C 
ATOM     10  O   UNL d   1      14.584  13.875  -1.800  0.00  0.00    -0.265 OA
BRANCH   9  11
ATOM     11  C   UNL d   1      14.723  15.290  -1.828  0.00  0.00     0.058 A 
ATOM     12  C   UNL d   1      15.026  15.282  -1.060  0.00  0.00     0.006 A 
ATOM     13  C   UNL d   1      15.318  15.975  -0.719  0.00  0.00     0.012 A 
ATOM     14  C   UNL d   1      15.304  16.676  -1.154  0.00  0.00     0.058 A 
ATOM     15  C   UNL d   1      15.002  16.687  -1.923  0.00  0.00     0.012 A 
ATOM     16 CL   UNL d   1      15.595  17.374  -0.821  0.00  0.00    -0.082 Cl
ATOM     17  C   UNL d   1      14.713  15.991  -2.253  0.00  0.00     0.006 A 
ENDBRANCH   9  11
ENDBRANCH   1   8
BRANCH   4  18
ATOM     18  O   UNL d   1      13.152  14.672  -4.283  0.00  0.00    -0.327 OA
ATOM     19  C   UNL d   1      13.342  14.760  -5.082  0.00  0.00     0.181 C 
ENDBRANCH   4  18
BRANCH   6  20
ATOM     20  O   UNL d   1      13.686  11.782  -2.767  0.00  0.00    -0.327 OA
ATOM     21  C   UNL d   1      13.987  11.779  -2.003  0.00  0.00     0.181 C 
ENDBRANCH   6  20
TORSDOF 4
ENDMDL
