MODEL 1
REMARK VINA RESULT:      -5.3      0.000      0.000
REMARK  2 active torsions:
REMARK  status: ('A' for Active; 'I' for Inactive)
REMARK       I    between atoms: C_2  and  N_1 
REMARK       I    between atoms: C_3  and  N_1 
REMARK       I    between atoms: N_4  and  C_2 
REMARK    1  A    between atoms: C_9  and  C_3 
REMARK    2  A    between atoms: C_5  and  N_4 
ROOT
ATOM      1  N   UNL d   1      57.743   0.328  32.119  0.00  0.00    -0.140 NA
ATOM      2  C   UNL d   1      58.376   0.390  31.600  0.00  0.00     0.424 C 
ATOM      3  C   UNL d   1      57.029   0.002  31.877  0.00  0.00     0.284 C 
ATOM      4  N   UNL d   1      58.330   0.135  30.827  0.00  0.00    -0.329 NA
ATOM      5  O   UNL d   1      59.155   0.679  31.645  0.00  0.00    -0.228 OA
ATOM      6  O   UNL d   1      56.946  -0.268  31.099  0.00  0.00    -0.265 OA
ENDROOT
BRANCH   3   7
ATOM      7  C   UNL d   1      56.397  -0.059  32.400  0.00  0.00     0.058 A 
ATOM      8  C   UNL d   1      56.162  -0.796  32.667  0.00  0.00     0.005 A 
ATOM      9  C   UNL d   1      55.529  -0.865  33.192  0.00  0.00     0.000 A 
ATOM     10  C   UNL d   1      55.130  -0.184  33.450  0.00  0.00     0.000 A 
ATOM     11  C   UNL d   1      55.366   0.553  33.184  0.00  0.00     0.000 A 
ATOM     12  C   UNL d   1      56.005   0.620  32.654  0.00  0.00     0.005 A 
ENDBRANCH   3   7
BRANCH   4  13
ATOM     13  C   UNL d   1      58.399  -0.083  30.040  0.00  0.00     0.219 A 
ATOM     14  N   UNL d   1      58.209   0.451  29.447  0.00  0.00    -0.214 NA
ATOM     15  C   UNL d   1      58.282   0.223  28.650  0.00  0.00     0.102 A 
ATOM     16  C   UNL d   1      58.544  -0.537  28.465  0.00  0.00     0.021 A 
ATOM     17  C   UNL d   1      58.734  -1.071  29.058  0.00  0.00     0.006 A 
ATOM     18  C   UNL d   1      58.663  -0.847  29.851  0.00  0.00     0.052 A 
ENDBRANCH   4  13
TORSDOF 2
ENDMDL
MODEL 2
REMARK VINA RESULT:      -5.0      1.366      4.240
REMARK  2 active torsions:
REMARK  status: ('A' for Active; 'I' for Inactive)
REMARK       I    between atoms: C_2  and  N_1 
REMARK       I    between atoms: C_3  and  N_1 
REMARK       I    between atoms: N_4  and  C_2 
REMARK    1  A    between atoms: C_9  and  C_3 
REMARK    2  A    between atoms: C_5  and  N_4 
ROOT
ATOM      1  N   UNL d   1      57.015  -0.843  31.517  0.00  0.00    -0.140 NA
ATOM      2  C   UNL d   1      56.535  -1.092  32.135  0.00  0.00     0.424 C 
ATOM      3  C   UNL d   1      57.238  -0.055  31.446  0.00  0.00     0.284 C 
ATOM      4  N   UNL d   1      56.257  -0.577  32.702  0.00  0.00    -0.329 NA
ATOM      5  O   UNL d   1      56.208  -1.817  32.377  0.00  0.00    -0.228 OA
ATOM      6  O   UNL d   1      56.974   0.495  32.005  0.00  0.00    -0.265 OA
ENDROOT
BRANCH   3   7
ATOM      7  C   UNL d   1      57.719   0.190  30.826  0.00  0.00     0.058 A 
ATOM      8  C   UNL d   1      58.533   0.190  30.920  0.00  0.00     0.005 A 
ATOM      9  C   UNL d   1      59.022   0.435  30.303  0.00  0.00     0.000 A 
ATOM     10  C   UNL d   1      58.688   0.682  29.584  0.00  0.00     0.000 A 
ATOM     11  C   UNL d   1      57.875   0.682  29.490  0.00  0.00     0.000 A 
ATOM     12  C   UNL d   1      57.383   0.434  30.115  0.00  0.00     0.005 A 
ENDBRANCH   3   7
BRANCH   4  13
ATOM     13  C   UNL d   1      55.922  -0.158  33.322  0.00  0.00     0.219 A 
ATOM     14  N   UNL d   1      56.396   0.130  33.927  0.00  0.00    -0.214 NA
ATOM     15  C   UNL d   1      56.051   0.554  34.553  0.00  0.00     0.102 A 
ATOM     16  C   UNL d   1      55.235   0.682  34.558  0.00  0.00     0.021 A 
ATOM     17  C   UNL d   1      54.762   0.395  33.954  0.00  0.00     0.006 A 
ATOM     18  C   UNL d   1      55.103  -0.028  33.330  0.00  0.00     0.052 A 
ENDBRANCH   4  13
TORSDOF 2
ENDMDL
MODEL 3
REMARK VINA RESULT:      -5.0      1.380      1.854
REMARK  2 active torsions:
REMARK  status: ('A' for Active; 'I' for Inactive)
REMARK       I    between atoms: C_2  and  N_1 
REMARK       I    between atoms: C_3  and  N_1 
REMARK       I    between atoms: N_4  and  C_2 
REMARK    1  A    between atoms: C_9  and  C_3 
REMARK    2  A    between atoms: C_5  and  N_4 
ROOT
ATOM      1  N   UNL d   1      57.234   0.310  30.340  0.00  0.00    -0.140 NA
ATOM      2  C   UNL d   1      57.759   0.390  29.714  0.00  0.00     0.424 C 
ATOM      3  C   UNL d   1      57.486   0.020  31.067  0.00  0.00     0.284 C 
ATOM      4  N   UNL d   1      58.546   0.190  29.778  0.00  0.00    -0.329 NA
ATOM      5  O   UNL d   1      57.706   0.654  28.927  0.00  0.00    -0.228 OA
ATOM      6  O   UNL d   1      58.279  -0.193  31.168  0.00  0.00    -0.265 OA
ENDROOT
BRANCH   3   7
ATOM      7  C   UNL d   1      56.958  -0.059  31.692  0.00  0.00     0.058 A 
ATOM      8  C   UNL d   1      56.699   0.607  32.091  0.00  0.00     0.005 A 
ATOM      9  C   UNL d   1      56.169   0.536  32.719  0.00  0.00     0.000 A 
ATOM     10  C   UNL d   1      55.898  -0.216  32.948  0.00  0.00     0.000 A 
ATOM     11  C   UNL d   1      56.158  -0.882  32.549  0.00  0.00     0.000 A 
ATOM     12  C   UNL d   1      56.693  -0.807  31.915  0.00  0.00     0.005 A 
ENDBRANCH   3   7
BRANCH   4  13
ATOM     13  C   UNL d   1      59.347   0.024  29.726  0.00  0.00     0.219 A 
ATOM     14  N   UNL d   1      59.599  -0.691  29.414  0.00  0.00    -0.214 NA
ATOM     15  C   UNL d   1      60.413  -0.854  29.363  0.00  0.00     0.102 A 
ATOM     16  C   UNL d   1      60.958  -0.293  29.628  0.00  0.00     0.021 A 
ATOM     17  C   UNL d   1      60.707   0.421  29.941  0.00  0.00     0.006 A 
ATOM     18  C   UNL d   1      59.898   0.586  29.992  0.00  0.00     0.052 A 
ENDBRANCH   4  13
TORSDOF 2
ENDMDL
MODEL 4
REMARK VINA RESULT:      -4.4      0.883      4.000
REMARK  2 active torsions:
REMARK  status: ('A' for Active; 'I' for Inactive)
REMARK       I    between atoms: C_2  and  N_1 
REMARK       I    between atoms: C_3  and  N_1 
REMARK       I    between atoms: N_4  and  C_2 
REMARK    1  A    between atoms: C_9  and  C_3 
REMARK    2  A    between atoms: C_5  and  N_4 
ROOT
ATOM      1  N   UNL d   1      58.195   0.400  31.624  0.00  0.00    -0.140 NA
ATOM      2  C   UNL d   1      57.894   0.399  32.388  0.00  0.00     0.424 C 
ATOM      3  C   UNL d   1      57.777   0.059  31.005  0.00  0.00     0.284 C 
ATOM      4  N   UNL d   1      57.174   0.064  32.570  0.00  0.00    -0.329 NA
ATOM      5  O   UNL d   1      58.151   0.682  33.127  0.00  0.00    -0.228 OA
ATOM      6  O   UNL d   1      57.042  -0.291  31.153  0.00  0.00    -0.265 OA
ENDROOT
BRANCH   3   7
ATOM      7  C   UNL d   1      58.082   0.061  30.241  0.00  0.00     0.058 A 
ATOM      8  C   UNL d   1      57.889   0.672  29.730  0.00  0.00     0.005 A 
ATOM      9  C   UNL d   1      58.191   0.682  28.962  0.00  0.00     0.000 A 
ATOM     10  C   UNL d   1      58.692   0.070  28.707  0.00  0.00     0.000 A 
ATOM     11  C   UNL d   1      58.884  -0.540  29.218  0.00  0.00     0.000 A 
ATOM     12  C   UNL d   1      58.578  -0.547  29.993  0.00  0.00     0.005 A 
ENDBRANCH   3   7
BRANCH   4  13
ATOM     13  C   UNL d   1      56.473  -0.238  32.868  0.00  0.00     0.219 A 
ATOM     14  N   UNL d   1      56.364  -1.050  32.920  0.00  0.00    -0.214 NA
ATOM     15  C   UNL d   1      55.651  -1.351  33.223  0.00  0.00     0.102 A 
ATOM     16  C   UNL d   1      55.060  -0.829  33.469  0.00  0.00     0.021 A 
ATOM     17  C   UNL d   1      55.168  -0.019  33.417  0.00  0.00     0.006 A 
ATOM     18  C   UNL d   1      55.877   0.283  33.116  0.00  0.00     0.052 A 
ENDBRANCH   4  13
TORSDOF 2
ENDMDL
MODEL 5
REMARK VINA RESULT:      -4.1      1.274      4.267
REMARK  2 active torsions:
REMARK  status: ('A' for Active; 'I' for Inactive)
REMARK       I    between atoms: C_2  and  N_1 
REMARK       I    between atoms: C_3  and  N_1 
REMARK       I    between atoms: N_4  and  C_2 
REMARK    1  A    between atoms: C_9  and  C_3 
REMARK    2  A    between atoms: C_5  and  N_4 
ROOT
ATOM      1  N   UNL d   1      58.228  -0.541  29.509  0.00  0.00    -0.140 NA
ATOM      2  C   UNL d   1      57.725  -0.065  29.950  0.00  0.00     0.424 C 
ATOM      3  C   UNL d   1      58.472  -1.274  29.791  0.00  0.00     0.284 C 
ATOM      4  N   UNL d   1      57.444  -0.291  30.681  0.00  0.00    -0.329 NA
ATOM      5  O   UNL d   1      57.375   0.682  29.847  0.00  0.00    -0.228 OA
ATOM      6  O   UNL d   1      58.205  -1.535  30.530  0.00  0.00    -0.265 OA
ENDROOT
BRANCH   3   7
ATOM      7  C   UNL d   1      58.975  -1.748  29.347  0.00  0.00     0.058 A 
ATOM      8  C   UNL d   1      58.703  -2.460  29.048  0.00  0.00     0.005 A 
ATOM      9  C   UNL d   1      59.202  -2.941  28.602  0.00  0.00     0.000 A 
ATOM     10  C   UNL d   1      59.984  -2.702  28.456  0.00  0.00     0.000 A 
ATOM     11  C   UNL d   1      60.257  -1.991  28.755  0.00  0.00     0.000 A 
ATOM     12  C   UNL d   1      59.750  -1.507  29.206  0.00  0.00     0.005 A 
ENDBRANCH   3   7
BRANCH   4  13
ATOM     13  C   UNL d   1      57.102  -0.410  31.416  0.00  0.00     0.219 A 
ATOM     14  N   UNL d   1      56.619  -1.060  31.544  0.00  0.00    -0.214 NA
ATOM     15  C   UNL d   1      56.275  -1.176  32.292  0.00  0.00     0.102 A 
ATOM     16  C   UNL d   1      56.424  -0.635  32.898  0.00  0.00     0.021 A 
ATOM     17  C   UNL d   1      56.907   0.015  32.770  0.00  0.00     0.006 A 
ATOM     18  C   UNL d   1      57.251   0.132  32.027  0.00  0.00     0.052 A 
ENDBRANCH   4  13
TORSDOF 2
ENDMDL
MODEL 6
REMARK VINA RESULT:      -3.2      9.445     10.303
REMARK  2 active torsions:
REMARK  status: ('A' for Active; 'I' for Inactive)
REMARK       I    between atoms: C_2  and  N_1 
REMARK       I    between atoms: C_3  and  N_1 
REMARK       I    between atoms: N_4  and  C_2 
REMARK    1  A    between atoms: C_9  and  C_3 
REMARK    2  A    between atoms: C_5  and  N_4 
ROOT
ATOM      1  N   UNL d   1      59.731  -9.710  32.673  0.00  0.00    -0.140 NA
ATOM      2  C   UNL d   1      60.200  -9.617  33.340  0.00  0.00     0.424 C 
ATOM      3  C   UNL d   1      58.929  -9.534  32.692  0.00  0.00     0.284 C 
ATOM      4  N   UNL d   1      59.897  -9.349  34.048  0.00  0.00    -0.329 NA
ATOM      5  O   UNL d   1      61.002  -9.734  33.523  0.00  0.00    -0.228 OA
ATOM      6  O   UNL d   1      58.588  -9.259  33.394  0.00  0.00    -0.265 OA
ENDROOT
BRANCH   3   7
ATOM      7  C   UNL d   1      58.463  -9.628  32.021  0.00  0.00     0.058 A 
ATOM      8  C   UNL d   1      57.653  -9.722  32.100  0.00  0.00     0.005 A 
ATOM      9  C   UNL d   1      57.179  -9.817  31.432  0.00  0.00     0.000 A 
ATOM     10  C   UNL d   1      57.525  -9.818  30.676  0.00  0.00     0.000 A 
ATOM     11  C   UNL d   1      58.334  -9.724  30.597  0.00  0.00     0.000 A 
ATOM     12  C   UNL d   1      58.811  -9.628  31.274  0.00  0.00     0.005 A 
ENDBRANCH   3   7
BRANCH   4  13
ATOM     13  C   UNL d   1      59.708  -9.091  34.803  0.00  0.00     0.219 A 
ATOM     14  N   UNL d   1      59.723  -8.290  34.980  0.00  0.00    -0.214 NA
ATOM     15  C   UNL d   1      59.530  -8.035  35.747  0.00  0.00     0.102 A 
ATOM     16  C   UNL d   1      59.325  -8.590  36.323  0.00  0.00     0.021 A 
ATOM     17  C   UNL d   1      59.309  -9.391  36.146  0.00  0.00     0.006 A 
ATOM     18  C   UNL d   1      59.501  -9.647  35.383  0.00  0.00     0.052 A 
ENDBRANCH   4  13
TORSDOF 2
ENDMDL
