MODEL 1
REMARK VINA RESULT:      80.6      0.000      0.000
REMARK  4 active torsions:
REMARK  status: ('A' for Active; 'I' for Inactive)
REMARK    1  A    between atoms: N_14  and  C_2 
REMARK       I    between atoms: C_9  and  N_11 
REMARK    2  A    between atoms: C_13  and  C_9 
REMARK    3  A    between atoms: C_10  and  C_17 
REMARK       I    between atoms: N_12  and  C_10 
REMARK    4  A    between atoms: C_30  and  N_14 
ROOT
ATOM      1  C   UNL d   1     -50.470  27.858  33.481  0.00  0.00     0.057 A 
ATOM      2  C   UNL d   1     -49.793  27.386  33.334  0.00  0.00     0.006 A 
ATOM      3  C   UNL d   1     -51.204  27.499  33.603  0.00  0.00     0.006 A 
ATOM      4  C   UNL d   1     -50.605  26.208  33.436  0.00  0.00     0.084 A 
ATOM      5  C   UNL d   1     -49.873  26.566  33.314  0.00  0.00     0.019 A 
ATOM      6  C   UNL d   1     -51.275  26.674  33.581  0.00  0.00     0.019 A 
ENDROOT
BRANCH   1   7
ATOM      7  C   UNL d   1     -50.425  28.689  33.508  0.00  0.00     0.265 C 
ATOM      8  N   UNL d   1     -49.719  29.065  33.726  0.00  0.00    -0.270 N 
ATOM      9  C   UNL d   1     -48.880  29.376  33.982  0.00  0.00     0.096 A 
ATOM     10  C   UNL d   1     -49.187  29.671  33.895  0.00  0.00     0.096 A 
ATOM     11  C   UNL d   1     -48.926  30.197  33.981  0.00  0.00     0.077 A 
ATOM     12  N   UNL d   1     -48.553  30.924  34.104  0.00  0.00    -0.171 NA
ATOM     13  C   UNL d   1     -48.548  31.751  34.119  0.00  0.00     0.267 C 
ATOM     14  C   UNL d   1     -49.222  30.485  33.897  0.00  0.00     0.077 A 
ATOM     15  O   UNL d   1     -49.221  32.171  33.924  0.00  0.00    -0.271 OA
ATOM     16  O   UNL d   1     -51.091  29.144  33.315  0.00  0.00    -0.267 OA
BRANCH  13  17
ATOM     17  C   UNL d   1     -47.859  32.146  34.331  0.00  0.00     0.151 A 
ATOM     18  O   UNL d   1     -47.351  32.534  33.825  0.00  0.00    -0.301 OA
ATOM     19  C   UNL d   1     -46.735  32.851  34.262  0.00  0.00     0.123 A 
ATOM     20  C   UNL d   1     -46.866  32.655  35.052  0.00  0.00     0.029 A 
ATOM     21  C   UNL d   1     -47.557  32.221  35.096  0.00  0.00     0.031 A 
ENDBRANCH  13  17
ENDBRANCH   1   7
BRANCH   4  22
ATOM     22  N   UNL d   1     -50.672  25.381  33.413  0.00  0.00    -0.221 NA
BRANCH  22  23
ATOM     23  C   UNL d   1     -51.422  25.025  33.411  0.00  0.00     0.194 A 
ATOM     24  S   UNL d   1     -52.121  25.420  33.316  0.00  0.00    -0.046 SA
ATOM     25  C   UNL d   1     -52.740  24.857  33.347  0.00  0.00     0.062 A 
ATOM     26  C   UNL d   1     -53.557  24.757  33.308  0.00  0.00     0.107 A 
ATOM     27  C   UNL d   1     -52.401  24.117  33.463  0.00  0.00     0.102 A 
ATOM     28  S   UNL d   1     -53.720  23.962  33.398  0.00  0.00     0.213 S 
ATOM     29  C   UNL d   1     -53.012  23.561  33.494  0.00  0.00     0.118 A 
ATOM     30  O   UNL d   1     -54.492  24.252  33.312  0.00  0.00    -0.217 OA
ATOM     31  O   UNL d   1     -54.022  23.192  33.477  0.00  0.00    -0.217 OA
ATOM     32  N   UNL d   1     -51.578  24.217  33.503  0.00  0.00    -0.220 NA
ENDBRANCH  22  23
ENDBRANCH   4  22
TORSDOF 4
ENDMDL
MODEL 2
REMARK VINA RESULT:      83.5      2.560      7.499
REMARK  4 active torsions:
REMARK  status: ('A' for Active; 'I' for Inactive)
REMARK    1  A    between atoms: N_14  and  C_2 
REMARK       I    between atoms: C_9  and  N_11 
REMARK    2  A    between atoms: C_13  and  C_9 
REMARK    3  A    between atoms: C_10  and  C_17 
REMARK       I    between atoms: N_12  and  C_10 
REMARK    4  A    between atoms: C_30  and  N_14 
ROOT
ATOM      1  C   UNL d   1     -48.503  28.006  34.815  0.00  0.00     0.057 A 
ATOM      2  C   UNL d   1     -48.696  28.188  35.610  0.00  0.00     0.006 A 
ATOM      3  C   UNL d   1     -48.064  28.541  34.364  0.00  0.00     0.006 A 
ATOM      4  C   UNL d   1     -48.005  29.437  35.481  0.00  0.00     0.084 A 
ATOM      5  C   UNL d   1     -48.442  28.903  35.930  0.00  0.00     0.019 A 
ATOM      6  C   UNL d   1     -47.813  29.258  34.694  0.00  0.00     0.019 A 
ENDROOT
BRANCH   1   7
ATOM      7  C   UNL d   1     -48.743  27.291  34.461  0.00  0.00     0.265 C 
ATOM      8  N   UNL d   1     -49.528  27.033  34.526  0.00  0.00    -0.270 N 
ATOM      9  C   UNL d   1     -50.428  26.842  34.663  0.00  0.00     0.096 A 
ATOM     10  C   UNL d   1     -50.195  26.558  34.431  0.00  0.00     0.096 A 
ATOM     11  C   UNL d   1     -50.576  26.128  34.283  0.00  0.00     0.077 A 
ATOM     12  N   UNL d   1     -51.115  25.534  34.083  0.00  0.00    -0.171 NA
ATOM     13  C   UNL d   1     -51.314  24.820  33.718  0.00  0.00     0.267 C 
ATOM     14  C   UNL d   1     -50.352  25.851  34.058  0.00  0.00     0.077 A 
ATOM     15  O   UNL d   1     -50.749  24.393  33.310  0.00  0.00    -0.271 OA
ATOM     16  O   UNL d   1     -48.193  26.835  34.040  0.00  0.00    -0.267 OA
BRANCH  13  17
ATOM     17  C   UNL d   1     -52.087  24.543  33.769  0.00  0.00     0.151 A 
ATOM     18  O   UNL d   1     -52.361  23.975  34.286  0.00  0.00    -0.301 OA
ATOM     19  C   UNL d   1     -53.162  23.863  34.153  0.00  0.00     0.123 A 
ATOM     20  C   UNL d   1     -53.385  24.370  33.543  0.00  0.00     0.029 A 
ATOM     21  C   UNL d   1     -52.725  24.789  33.306  0.00  0.00     0.031 A 
ENDBRANCH  13  17
ENDBRANCH   1   7
BRANCH   4  22
ATOM     22  N   UNL d   1     -47.755  30.156  35.815  0.00  0.00    -0.221 NA
BRANCH  22  23
ATOM     23  C   UNL d   1     -47.675  30.830  35.338  0.00  0.00     0.194 A 
ATOM     24  S   UNL d   1     -48.268  31.355  35.175  0.00  0.00    -0.046 SA
ATOM     25  C   UNL d   1     -47.954  31.950  34.676  0.00  0.00     0.062 A 
ATOM     26  C   UNL d   1     -48.130  32.644  34.268  0.00  0.00     0.107 A 
ATOM     27  C   UNL d   1     -47.162  31.774  34.542  0.00  0.00     0.102 A 
ATOM     28  S   UNL d   1     -47.453  32.892  33.886  0.00  0.00     0.213 S 
ATOM     29  C   UNL d   1     -46.852  32.361  34.050  0.00  0.00     0.118 A 
ATOM     30  O   UNL d   1     -47.974  33.493  33.649  0.00  0.00    -0.217 OA
ATOM     31  O   UNL d   1     -46.844  33.253  33.450  0.00  0.00    -0.217 OA
ATOM     32  N   UNL d   1     -46.983  31.075  34.953  0.00  0.00    -0.220 NA
ENDBRANCH  22  23
ENDBRANCH   4  22
TORSDOF 4
ENDMDL
