MODEL 1
REMARK VINA RESULT:      53.1      0.000      0.000
REMARK  4 active torsions:
REMARK  status: ('A' for Active; 'I' for Inactive)
REMARK    1  A    between atoms: C_10  and  N_3 
REMARK    2  A    between atoms: C_11  and  C_6 
REMARK    3  A    between atoms: C_16  and  C_10 
REMARK    4  A    between atoms: N_17  and  C_16 
ROOT
ATOM      1  C   UNL d   1      14.155  13.448  -2.659  0.00  0.00     0.083 A 
ATOM      2  C   UNL d   1      14.371  14.099  -2.223  0.00  0.00     0.161 A 
ATOM      3  N   UNL d   1      14.014  14.509  -3.417  0.00  0.00    -0.270 N 
ATOM      4  C   UNL d   1      14.283  14.758  -2.692  0.00  0.00     0.288 A 
ATOM      5  C   UNL d   1      14.185  12.695  -2.332  0.00  0.00     0.201 A 
ATOM      6  C   UNL d   1      13.934  13.704  -3.397  0.00  0.00     0.072 A 
ATOM      7  O   UNL d   1      14.622  14.002  -1.443  0.00  0.00    -0.302 OA
ATOM      8  C   UNL d   1      14.437  12.610  -1.555  0.00  0.00     0.062 A 
ATOM      9  C   UNL d   1      14.654  13.265  -1.117  0.00  0.00     0.103 A 
ATOM     10  O   UNL d   1      14.443  15.540  -2.465  0.00  0.00    -0.264 OA
ATOM     11  O   UNL d   1      13.966  12.033  -2.776  0.00  0.00    -0.286 OA
ATOM     12  C   UNL d   1      14.470  11.856  -1.219  0.00  0.00     0.005 A 
ATOM     13  C   UNL d   1      14.905  13.171  -0.340  0.00  0.00     0.025 A 
ATOM     14  C   UNL d   1      14.719  11.779  -0.453  0.00  0.00     0.000 A 
ATOM     15  C   UNL d   1      14.936  12.435  -0.014  0.00  0.00     0.002 A 
ENDROOT
BRANCH   6  16
ATOM     16  C   UNL d   1      13.672  13.219  -4.024  0.00  0.00     0.017 A 
ATOM     17  C   UNL d   1      13.027  12.719  -3.912  0.00  0.00     0.004 A 
ATOM     18  C   UNL d   1      12.769  12.239  -4.535  0.00  0.00     0.030 A 
ATOM     19  C   UNL d   1      13.162  12.261  -5.277  0.00  0.00     0.140 A 
ATOM     20  C   UNL d   1      13.808  12.766  -5.378  0.00  0.00     0.030 A 
ATOM     21  F   UNL d   1      12.903  11.779  -5.903  0.00  0.00    -0.204 F 
ATOM     22  C   UNL d   1      14.068  13.249  -4.752  0.00  0.00     0.004 A 
ENDBRANCH   6  16
BRANCH   3  23
ATOM     23  C   UNL d   1      13.846  15.002  -4.071  0.00  0.00     0.102 C 
BRANCH  23  24
ATOM     24  C   UNL d   1      14.374  15.619  -4.266  0.00  0.00     0.100 C 
BRANCH  24  25
ATOM     25  N   UNL d   1      14.214  16.103  -4.927  0.00  0.00    -0.299 N 
ATOM     26  C   UNL d   1      14.844  16.444  -5.350  0.00  0.00     0.100 C 
ATOM     27  C   UNL d   1      13.429  16.241  -5.157  0.00  0.00     0.100 C 
ENDBRANCH  24  25
ENDBRANCH  23  24
ENDBRANCH   3  23
TORSDOF 4
ENDMDL
