MODEL 1
REMARK VINA RESULT:      -8.2      0.000      0.000
REMARK  5 active torsions:
REMARK  status: ('A' for Active; 'I' for Inactive)
REMARK    1  A    between atoms: N_2  and  C_7 
REMARK    2  A    between atoms: N_11  and  C_3 
REMARK    3  A    between atoms: C_9  and  C_4 
REMARK    4  A    between atoms: C_18  and  N_11 
REMARK    5  A    between atoms: C_16  and  C_18 
ROOT
ATOM      1  N   UNL d   1      53.439  31.924  53.739  0.00  0.00    -0.222 NA
ATOM      2  C   UNL d   1      53.260  31.218  53.356  0.00  0.00     0.172 A 
ATOM      3  C   UNL d   1      52.948  32.519  53.422  0.00  0.00     0.090 A 
ATOM      4  S   UNL d   1      52.672  31.368  52.813  0.00  0.00    -0.048 SA
ATOM      5  C   UNL d   1      52.480  32.163  52.853  0.00  0.00     0.057 A 
ENDROOT
BRANCH   3   6
ATOM      6  C   UNL d   1      52.965  33.319  53.670  0.00  0.00     0.018 A 
ATOM      7  C   UNL d   1      52.583  33.888  53.211  0.00  0.00     0.003 A 
ATOM      8  C   UNL d   1      52.599  34.676  53.455  0.00  0.00     0.024 A 
ATOM      9  C   UNL d   1      52.996  34.873  54.151  0.00  0.00     0.127 A 
ATOM     10  C   UNL d   1      53.374  34.316  54.608  0.00  0.00     0.024 A 
ATOM     11  C   UNL d   1      53.358  33.516  54.361  0.00  0.00     0.003 A 
BRANCH   9  12
ATOM     12  N   UNL d   1      53.012  35.656  54.393  0.00  0.00    -0.114 N 
ATOM     13  O   UNL d   1      52.337  36.005  54.724  0.00  0.00    -0.532 OA
ATOM     14  O   UNL d   1      53.691  36.105  54.314  0.00  0.00    -0.532 OA
ENDBRANCH   9  12
ENDBRANCH   3   6
BRANCH   2  15
ATOM     15  N   UNL d   1      53.600  30.485  53.482  0.00  0.00    -0.332 N 
ATOM     16  H   UNL d   1      54.331  30.302  53.128  0.00  0.00     0.168 HD
BRANCH  15  17
ATOM     17  C   UNL d   1      53.219  29.920  53.961  0.00  0.00     0.074 C 
BRANCH  17  18
ATOM     18  C   UNL d   1      53.561  29.201  54.107  0.00  0.00     0.018 C 
ATOM     19  C   UNL d   1      53.360  28.754  54.798  0.00  0.00     0.002 C 
ENDBRANCH  17  18
ENDBRANCH  15  17
ENDBRANCH   2  15
TORSDOF 5
ENDMDL
MODEL 2
REMARK VINA RESULT:      -8.0      1.959      2.296
REMARK  5 active torsions:
REMARK  status: ('A' for Active; 'I' for Inactive)
REMARK    1  A    between atoms: N_2  and  C_7 
REMARK    2  A    between atoms: N_11  and  C_3 
REMARK    3  A    between atoms: C_9  and  C_4 
REMARK    4  A    between atoms: C_18  and  N_11 
REMARK    5  A    between atoms: C_16  and  C_18 
ROOT
ATOM      1  N   UNL d   1      52.608  32.093  53.057  0.00  0.00    -0.222 NA
ATOM      2  C   UNL d   1      53.369  31.871  53.278  0.00  0.00     0.172 A 
ATOM      3  C   UNL d   1      52.545  32.919  53.151  0.00  0.00     0.090 A 
ATOM      4  S   UNL d   1      53.772  32.541  53.505  0.00  0.00    -0.048 SA
ATOM      5  C   UNL d   1      53.269  33.182  53.427  0.00  0.00     0.057 A 
ENDROOT
BRANCH   3   6
ATOM      6  C   UNL d   1      51.851  33.356  52.982  0.00  0.00     0.018 A 
ATOM      7  C   UNL d   1      51.862  33.902  52.363  0.00  0.00     0.003 A 
ATOM      8  C   UNL d   1      51.179  34.333  52.197  0.00  0.00     0.024 A 
ATOM      9  C   UNL d   1      50.503  34.207  52.653  0.00  0.00     0.127 A 
ATOM     10  C   UNL d   1      50.486  33.669  53.265  0.00  0.00     0.024 A 
ATOM     11  C   UNL d   1      51.179  33.232  53.434  0.00  0.00     0.003 A 
BRANCH   9  12
ATOM     12  N   UNL d   1      49.824  34.635  52.488  0.00  0.00    -0.114 N 
ATOM     13  O   UNL d   1      49.440  34.545  51.759  0.00  0.00    -0.532 OA
ATOM     14  O   UNL d   1      49.514  35.157  53.036  0.00  0.00    -0.532 OA
ENDBRANCH   9  12
ENDBRANCH   3   6
BRANCH   2  15
ATOM     15  N   UNL d   1      53.686  31.116  53.279  0.00  0.00    -0.332 N 
ATOM     16  H   UNL d   1      54.363  30.952  52.824  0.00  0.00     0.168 HD
BRANCH  15  17
ATOM     17  C   UNL d   1      53.335  30.511  53.732  0.00  0.00     0.074 C 
BRANCH  17  18
ATOM     18  C   UNL d   1      53.620  29.754  53.704  0.00  0.00     0.018 C 
ATOM     19  C   UNL d   1      53.309  29.153  54.213  0.00  0.00     0.002 C 
ENDBRANCH  17  18
ENDBRANCH  15  17
ENDBRANCH   2  15
TORSDOF 5
ENDMDL
MODEL 3
REMARK VINA RESULT:      -7.5      2.343      3.107
REMARK  5 active torsions:
REMARK  status: ('A' for Active; 'I' for Inactive)
REMARK    1  A    between atoms: N_2  and  C_7 
REMARK    2  A    between atoms: N_11  and  C_3 
REMARK    3  A    between atoms: C_9  and  C_4 
REMARK    4  A    between atoms: C_18  and  N_11 
REMARK    5  A    between atoms: C_16  and  C_18 
ROOT
ATOM      1  N   UNL d   1      53.044  33.325  53.487  0.00  0.00    -0.222 NA
ATOM      2  C   UNL d   1      53.615  32.737  53.560  0.00  0.00     0.172 A 
ATOM      3  C   UNL d   1      52.383  32.993  53.102  0.00  0.00     0.090 A 
ATOM      4  S   UNL d   1      53.319  32.054  53.229  0.00  0.00    -0.048 SA
ATOM      5  C   UNL d   1      52.566  32.210  52.949  0.00  0.00     0.057 A 
ENDROOT
BRANCH   3   6
ATOM      6  C   UNL d   1      51.684  33.418  52.925  0.00  0.00     0.018 A 
ATOM      7  C   UNL d   1      51.692  33.964  52.307  0.00  0.00     0.003 A 
ATOM      8  C   UNL d   1      51.003  34.383  52.132  0.00  0.00     0.024 A 
ATOM      9  C   UNL d   1      50.324  34.244  52.581  0.00  0.00     0.127 A 
ATOM     10  C   UNL d   1      50.309  33.707  53.193  0.00  0.00     0.024 A 
ATOM     11  C   UNL d   1      51.008  33.282  53.370  0.00  0.00     0.003 A 
BRANCH   9  12
ATOM     12  N   UNL d   1      49.640  34.660  52.408  0.00  0.00    -0.114 N 
ATOM     13  O   UNL d   1      49.253  34.548  51.684  0.00  0.00    -0.532 OA
ATOM     14  O   UNL d   1      49.326  35.193  52.945  0.00  0.00    -0.532 OA
ENDBRANCH   9  12
ENDBRANCH   3   6
BRANCH   2  15
ATOM     15  N   UNL d   1      54.356  32.804  53.900  0.00  0.00    -0.332 N 
ATOM     16  H   UNL d   1      55.009  32.429  53.546  0.00  0.00     0.168 HD
BRANCH  15  17
ATOM     17  C   UNL d   1      54.461  33.245  54.599  0.00  0.00     0.074 C 
BRANCH  17  18
ATOM     18  C   UNL d   1      55.200  33.472  54.840  0.00  0.00     0.018 C 
ATOM     19  C   UNL d   1      55.305  33.952  55.529  0.00  0.00     0.002 C 
ENDBRANCH  17  18
ENDBRANCH  15  17
ENDBRANCH   2  15
TORSDOF 5
ENDMDL
MODEL 4
REMARK VINA RESULT:      -7.3      2.778      4.498
REMARK  5 active torsions:
REMARK  status: ('A' for Active; 'I' for Inactive)
REMARK    1  A    between atoms: N_2  and  C_7 
REMARK    2  A    between atoms: N_11  and  C_3 
REMARK    3  A    between atoms: C_9  and  C_4 
REMARK    4  A    between atoms: C_18  and  N_11 
REMARK    5  A    between atoms: C_16  and  C_18 
ROOT
ATOM      1  N   UNL d   1      51.693  33.323  53.319  0.00  0.00    -0.222 NA
ATOM      2  C   UNL d   1      51.616  34.138  53.230  0.00  0.00     0.172 A 
ATOM      3  C   UNL d   1      52.505  33.139  53.297  0.00  0.00     0.090 A 
ATOM      4  S   UNL d   1      52.362  34.455  53.155  0.00  0.00    -0.048 SA
ATOM      5  C   UNL d   1      52.906  33.846  53.196  0.00  0.00     0.057 A 
ENDROOT
BRANCH   3   6
ATOM      6  C   UNL d   1      52.810  32.363  53.370  0.00  0.00     0.018 A 
ATOM      7  C   UNL d   1      53.414  32.219  53.913  0.00  0.00     0.003 A 
ATOM      8  C   UNL d   1      53.715  31.454  53.985  0.00  0.00     0.024 A 
ATOM      9  C   UNL d   1      53.403  30.854  53.511  0.00  0.00     0.127 A 
ATOM     10  C   UNL d   1      52.807  30.990  52.973  0.00  0.00     0.024 A 
ATOM     11  C   UNL d   1      52.502  31.766  52.901  0.00  0.00     0.003 A 
BRANCH   9  12
ATOM     12  N   UNL d   1      53.701  30.094  53.582  0.00  0.00    -0.114 N 
ATOM     13  O   UNL d   1      53.280  29.516  54.001  0.00  0.00    -0.532 OA
ATOM     14  O   UNL d   1      54.418  29.892  53.243  0.00  0.00    -0.532 OA
ENDBRANCH   9  12
ENDBRANCH   3   6
BRANCH   2  15
ATOM     15  N   UNL d   1      50.923  34.573  53.217  0.00  0.00    -0.332 N 
ATOM     16  H   UNL d   1      50.812  35.190  53.764  0.00  0.00     0.168 HD
BRANCH  15  17
ATOM     17  C   UNL d   1      50.328  34.402  52.659  0.00  0.00     0.074 C 
BRANCH  17  18
ATOM     18  C   UNL d   1      49.611  34.777  52.689  0.00  0.00     0.018 C 
ATOM     19  C   UNL d   1      49.080  34.756  52.029  0.00  0.00     0.002 C 
ENDBRANCH  17  18
ENDBRANCH  15  17
ENDBRANCH   2  15
TORSDOF 5
ENDMDL
MODEL 5
REMARK VINA RESULT:      -7.1      2.453      4.053
REMARK  5 active torsions:
REMARK  status: ('A' for Active; 'I' for Inactive)
REMARK    1  A    between atoms: N_2  and  C_7 
REMARK    2  A    between atoms: N_11  and  C_3 
REMARK    3  A    between atoms: C_9  and  C_4 
REMARK    4  A    between atoms: C_18  and  N_11 
REMARK    5  A    between atoms: C_16  and  C_18 
ROOT
ATOM      1  N   UNL d   1      51.177  34.103  53.505  0.00  0.00    -0.222 NA
ATOM      2  C   UNL d   1      50.694  34.225  52.850  0.00  0.00     0.172 A 
ATOM      3  C   UNL d   1      51.960  34.013  53.233  0.00  0.00     0.090 A 
ATOM      4  S   UNL d   1      51.163  34.212  52.185  0.00  0.00    -0.048 SA
ATOM      5  C   UNL d   1      51.937  34.082  52.418  0.00  0.00     0.057 A 
ENDROOT
BRANCH   3   6
ATOM      6  C   UNL d   1      52.616  33.878  53.735  0.00  0.00     0.018 A 
ATOM      7  C   UNL d   1      52.901  34.499  54.197  0.00  0.00     0.003 A 
ATOM      8  C   UNL d   1      53.548  34.366  54.692  0.00  0.00     0.024 A 
ATOM      9  C   UNL d   1      53.892  33.616  54.711  0.00  0.00     0.127 A 
ATOM     10  C   UNL d   1      53.615  32.999  54.258  0.00  0.00     0.024 A 
ATOM     11  C   UNL d   1      52.959  33.134  53.756  0.00  0.00     0.003 A 
BRANCH   9  12
ATOM     12  N   UNL d   1      54.534  33.484  55.202  0.00  0.00    -0.114 N 
ATOM     13  O   UNL d   1      55.192  33.987  55.175  0.00  0.00    -0.532 OA
ATOM     14  O   UNL d   1      54.538  32.857  55.727  0.00  0.00    -0.532 OA
ENDBRANCH   9  12
ENDBRANCH   3   6
BRANCH   2  15
ATOM     15  N   UNL d   1      49.884  34.342  52.845  0.00  0.00    -0.332 N 
ATOM     16  H   UNL d   1      49.376  33.705  52.674  0.00  0.00     0.168 HD
BRANCH  15  17
ATOM     17  C   UNL d   1      49.565  35.093  53.009  0.00  0.00     0.074 C 
BRANCH  17  18
ATOM     18  C   UNL d   1      48.774  35.239  52.911  0.00  0.00     0.018 C 
ATOM     19  C   UNL d   1      48.398  35.886  53.307  0.00  0.00     0.002 C 
ENDBRANCH  17  18
ENDBRANCH  15  17
ENDBRANCH   2  15
TORSDOF 5
ENDMDL
MODEL 6
REMARK VINA RESULT:      -6.8      2.737      4.640
REMARK  5 active torsions:
REMARK  status: ('A' for Active; 'I' for Inactive)
REMARK    1  A    between atoms: N_2  and  C_7 
REMARK    2  A    between atoms: N_11  and  C_3 
REMARK    3  A    between atoms: C_9  and  C_4 
REMARK    4  A    between atoms: C_18  and  N_11 
REMARK    5  A    between atoms: C_16  and  C_18 
ROOT
ATOM      1  N   UNL d   1      53.159  32.894  53.622  0.00  0.00    -0.222 NA
ATOM      2  C   UNL d   1      53.587  33.597  53.602  0.00  0.00     0.172 A 
ATOM      3  C   UNL d   1      53.703  32.263  53.611  0.00  0.00     0.090 A 
ATOM      4  S   UNL d   1      54.379  33.410  53.579  0.00  0.00    -0.048 SA
ATOM      5  C   UNL d   1      54.451  32.595  53.584  0.00  0.00     0.057 A 
ENDROOT
BRANCH   3   6
ATOM      6  C   UNL d   1      53.482  31.455  53.625  0.00  0.00     0.018 A 
ATOM      7  C   UNL d   1      53.135  31.123  52.955  0.00  0.00     0.003 A 
ATOM      8  C   UNL d   1      52.917  30.327  52.969  0.00  0.00     0.024 A 
ATOM      9  C   UNL d   1      53.052  29.885  53.653  0.00  0.00     0.127 A 
ATOM     10  C   UNL d   1      53.395  30.208  54.318  0.00  0.00     0.024 A 
ATOM     11  C   UNL d   1      53.616  31.015  54.304  0.00  0.00     0.003 A 
BRANCH   9  12
ATOM     12  N   UNL d   1      52.836  29.096  53.667  0.00  0.00    -0.114 N 
ATOM     13  O   UNL d   1      53.059  28.612  54.302  0.00  0.00    -0.532 OA
ATOM     14  O   UNL d   1      52.398  28.770  53.057  0.00  0.00    -0.532 OA
ENDBRANCH   9  12
ENDBRANCH   3   6
BRANCH   2  15
ATOM     15  N   UNL d   1      53.290  34.359  53.605  0.00  0.00    -0.332 N 
ATOM     16  H   UNL d   1      53.138  34.746  52.884  0.00  0.00     0.168 HD
BRANCH  15  17
ATOM     17  C   UNL d   1      53.138  34.751  54.325  0.00  0.00     0.074 C 
BRANCH  17  18
ATOM     18  C   UNL d   1      52.711  35.438  54.341  0.00  0.00     0.018 C 
ATOM     19  C   UNL d   1      52.960  36.095  54.814  0.00  0.00     0.002 C 
ENDBRANCH  17  18
ENDBRANCH  15  17
ENDBRANCH   2  15
TORSDOF 5
ENDMDL
MODEL 7
REMARK VINA RESULT:      -5.5     10.098     11.045
REMARK  5 active torsions:
REMARK  status: ('A' for Active; 'I' for Inactive)
REMARK    1  A    between atoms: N_2  and  C_7 
REMARK    2  A    between atoms: N_11  and  C_3 
REMARK    3  A    between atoms: C_9  and  C_4 
REMARK    4  A    between atoms: C_18  and  N_11 
REMARK    5  A    between atoms: C_16  and  C_18 
ROOT
ATOM      1  N   UNL d   1      45.281  29.237  59.003  0.00  0.00    -0.222 NA
ATOM      2  C   UNL d   1      45.243  30.050  59.126  0.00  0.00     0.172 A 
ATOM      3  C   UNL d   1      45.096  29.090  58.204  0.00  0.00     0.090 A 
ATOM      4  S   UNL d   1      45.039  30.402  58.420  0.00  0.00    -0.048 SA
ATOM      5  C   UNL d   1      44.950  29.816  57.856  0.00  0.00     0.057 A 
ENDROOT
BRANCH   3   6
ATOM      6  C   UNL d   1      45.076  28.326  57.862  0.00  0.00     0.018 A 
ATOM      7  C   UNL d   1      45.105  27.665  58.356  0.00  0.00     0.003 A 
ATOM      8  C   UNL d   1      45.085  26.912  58.019  0.00  0.00     0.024 A 
ATOM      9  C   UNL d   1      45.038  26.840  57.198  0.00  0.00     0.127 A 
ATOM     10  C   UNL d   1      45.009  27.488  56.706  0.00  0.00     0.024 A 
ATOM     11  C   UNL d   1      45.029  28.252  57.047  0.00  0.00     0.003 A 
BRANCH   9  12
ATOM     12  N   UNL d   1      45.018  26.092  56.864  0.00  0.00    -0.114 N 
ATOM     13  O   UNL d   1      44.668  25.461  57.271  0.00  0.00    -0.532 OA
ATOM     14  O   UNL d   1      45.342  25.955  56.125  0.00  0.00    -0.532 OA
ENDBRANCH   9  12
ENDBRANCH   3   6
BRANCH   2  15
ATOM     15  N   UNL d   1      45.381  30.454  59.824  0.00  0.00    -0.332 N 
ATOM     16  H   UNL d   1      46.157  30.667  60.031  0.00  0.00     0.168 HD
BRANCH  15  17
ATOM     17  C   UNL d   1      44.748  30.653  60.328  0.00  0.00     0.074 C 
BRANCH  17  18
ATOM     18  C   UNL d   1      44.880  30.847  61.103  0.00  0.00     0.018 C 
ATOM     19  C   UNL d   1      44.320  31.311  61.538  0.00  0.00     0.002 C 
ENDBRANCH  17  18
ENDBRANCH  15  17
ENDBRANCH   2  15
TORSDOF 5
ENDMDL
