MODEL 1
REMARK VINA RESULT:      -8.3      0.000      0.000
REMARK  4 active torsions:
REMARK  status: ('A' for Active; 'I' for Inactive)
REMARK    1  A    between atoms: C_15  and  C_2 
REMARK    2  A    between atoms: C_6  and  S_16 
REMARK    3  A    between atoms: N_8  and  C_11 
REMARK    4  A    between atoms: S_16  and  C_15 
ROOT
ATOM      1  C   UNL d   1      50.498  34.116  52.600  0.00  0.00     0.141 A 
ATOM      2  N   UNL d   1      49.897  34.545  52.934  0.00  0.00    -0.232 NA
ATOM      3  S   UNL d   1      50.335  34.014  51.796  0.00  0.00    -0.060 SA
ATOM      4  C   UNL d   1      49.342  34.721  52.339  0.00  0.00     0.090 A 
ATOM      5  C   UNL d   1      48.179  35.227  51.657  0.00  0.00     0.128 A 
ATOM      6  C   UNL d   1      49.603  34.399  51.638  0.00  0.00     0.049 A 
ATOM      7  C   UNL d   1      48.627  35.141  52.364  0.00  0.00     0.043 A 
ATOM      8  C   UNL d   1      48.444  34.904  50.962  0.00  0.00     0.024 A 
ATOM      9  C   UNL d   1      49.156  34.488  50.944  0.00  0.00     0.010 A 
ENDROOT
BRANCH   1  10
ATOM     10  S   UNL d   1      51.164  33.830  53.006  0.00  0.00    -0.059 SA
BRANCH  10  11
ATOM     11  C   UNL d   1      51.717  34.354  53.304  0.00  0.00     0.059 C 
BRANCH  11  12
ATOM     12  C   UNL d   1      52.385  34.067  53.713  0.00  0.00     0.112 A 
ATOM     13  C   UNL d   1      52.938  34.553  54.118  0.00  0.00     0.119 A 
ATOM     14  N   UNL d   1      53.498  34.027  54.435  0.00  0.00    -0.284 N 
ATOM     15 BR   UNL d   1      52.915  35.377  54.177  0.00  0.00    -0.028 Br
ATOM     16  C   UNL d   1      53.293  33.261  54.232  0.00  0.00     0.148 A 
ATOM     17  C   UNL d   1      54.167  34.175  54.885  0.00  0.00     0.082 A 
ATOM     18  N   UNL d   1      52.601  33.293  53.784  0.00  0.00    -0.226 NA
ATOM     19  C   UNL d   1      53.752  32.624  54.474  0.00  0.00     0.037 A 
ATOM     20  C   UNL d   1      54.425  32.774  54.926  0.00  0.00     0.005 A 
ATOM     21  C   UNL d   1      54.630  33.541  55.129  0.00  0.00     0.019 A 
ENDBRANCH  11  12
ENDBRANCH  10  11
ENDBRANCH   1  10
BRANCH   5  22
ATOM     22  N   UNL d   1      47.445  35.660  51.690  0.00  0.00    -0.114 N 
ATOM     23  O   UNL d   1      47.437  36.452  51.928  0.00  0.00    -0.532 OA
ATOM     24  O   UNL d   1      46.740  35.283  51.482  0.00  0.00    -0.532 OA
ENDBRANCH   5  22
TORSDOF 4
ENDMDL
MODEL 2
REMARK VINA RESULT:      -7.9      2.894      5.566
REMARK  4 active torsions:
REMARK  status: ('A' for Active; 'I' for Inactive)
REMARK    1  A    between atoms: C_15  and  C_2 
REMARK    2  A    between atoms: C_6  and  S_16 
REMARK    3  A    between atoms: N_8  and  C_11 
REMARK    4  A    between atoms: S_16  and  C_15 
ROOT
ATOM      1  C   UNL d   1      51.050  33.980  53.088  0.00  0.00     0.141 A 
ATOM      2  N   UNL d   1      50.980  33.173  53.073  0.00  0.00    -0.232 NA
ATOM      3  S   UNL d   1      51.853  34.176  53.105  0.00  0.00    -0.060 SA
ATOM      4  C   UNL d   1      51.745  32.846  53.080  0.00  0.00     0.090 A 
ATOM      5  C   UNL d   1      52.830  31.899  53.082  0.00  0.00     0.128 A 
ATOM      6  C   UNL d   1      52.287  33.455  53.100  0.00  0.00     0.049 A 
ATOM      7  C   UNL d   1      52.004  32.059  53.071  0.00  0.00     0.043 A 
ATOM      8  C   UNL d   1      53.364  32.509  53.102  0.00  0.00     0.024 A 
ATOM      9  C   UNL d   1      53.100  33.291  53.111  0.00  0.00     0.010 A 
ENDROOT
BRANCH   1  10
ATOM     10  S   UNL d   1      50.414  34.515  53.087  0.00  0.00    -0.059 SA
BRANCH  10  11
ATOM     11  C   UNL d   1      49.876  34.509  52.470  0.00  0.00     0.059 C 
BRANCH  11  12
ATOM     12  C   UNL d   1      49.196  34.991  52.506  0.00  0.00     0.112 A 
ATOM     13  C   UNL d   1      48.632  35.061  51.887  0.00  0.00     0.119 A 
ATOM     14  N   UNL d   1      48.061  35.594  52.172  0.00  0.00    -0.284 N 
ATOM     15 BR   UNL d   1      48.655  34.675  51.156  0.00  0.00    -0.028 Br
ATOM     16  C   UNL d   1      48.271  35.834  52.926  0.00  0.00     0.148 A 
ATOM     17  C   UNL d   1      47.380  35.879  51.818  0.00  0.00     0.082 A 
ATOM     18  N   UNL d   1      48.976  35.456  53.127  0.00  0.00    -0.226 NA
ATOM     19  C   UNL d   1      47.804  36.365  53.344  0.00  0.00     0.037 A 
ATOM     20  C   UNL d   1      47.118  36.651  52.986  0.00  0.00     0.005 A 
ATOM     21  C   UNL d   1      46.908  36.410  52.232  0.00  0.00     0.019 A 
ENDBRANCH  11  12
ENDBRANCH  10  11
ENDBRANCH   1  10
BRANCH   5  22
ATOM     22  N   UNL d   1      53.089  31.087  53.072  0.00  0.00    -0.114 N 
ATOM     23  O   UNL d   1      53.507  30.774  53.713  0.00  0.00    -0.532 OA
ATOM     24  O   UNL d   1      52.920  30.613  52.418  0.00  0.00    -0.532 OA
ENDBRANCH   5  22
TORSDOF 4
ENDMDL
MODEL 3
REMARK VINA RESULT:      -7.8      2.865      5.672
REMARK  4 active torsions:
REMARK  status: ('A' for Active; 'I' for Inactive)
REMARK    1  A    between atoms: C_15  and  C_2 
REMARK    2  A    between atoms: C_6  and  S_16 
REMARK    3  A    between atoms: N_8  and  C_11 
REMARK    4  A    between atoms: S_16  and  C_15 
ROOT
ATOM      1  C   UNL d   1      52.089  33.743  52.977  0.00  0.00     0.141 A 
ATOM      2  N   UNL d   1      52.524  34.222  53.465  0.00  0.00    -0.232 NA
ATOM      3  S   UNL d   1      52.399  32.977  53.015  0.00  0.00    -0.060 SA
ATOM      4  C   UNL d   1      53.119  33.761  53.820  0.00  0.00     0.090 A 
ATOM      5  C   UNL d   1      54.245  33.359  54.622  0.00  0.00     0.128 A 
ATOM      6  C   UNL d   1      53.049  32.995  53.548  0.00  0.00     0.049 A 
ATOM      7  C   UNL d   1      53.715  33.958  54.360  0.00  0.00     0.043 A 
ATOM      8  C   UNL d   1      54.170  32.599  54.349  0.00  0.00     0.024 A 
ATOM      9  C   UNL d   1      53.574  32.409  53.811  0.00  0.00     0.010 A 
ENDROOT
BRANCH   1  10
ATOM     10  S   UNL d   1      51.441  33.989  52.519  0.00  0.00    -0.059 SA
BRANCH  10  11
ATOM     11  C   UNL d   1      50.776  34.297  52.884  0.00  0.00     0.059 C 
BRANCH  11  12
ATOM     12  C   UNL d   1      50.099  34.478  52.432  0.00  0.00     0.112 A 
ATOM     13  C   UNL d   1      49.440  34.914  52.719  0.00  0.00     0.119 A 
ATOM     14  N   UNL d   1      48.910  34.952  52.079  0.00  0.00    -0.284 N 
ATOM     15 BR   UNL d   1      49.353  35.229  53.478  0.00  0.00    -0.028 Br
ATOM     16  C   UNL d   1      49.233  34.559  51.438  0.00  0.00     0.148 A 
ATOM     17  C   UNL d   1      48.173  35.305  52.024  0.00  0.00     0.082 A 
ATOM     18  N   UNL d   1      49.971  34.268  51.664  0.00  0.00    -0.226 NA
ATOM     19  C   UNL d   1      48.827  34.510  50.726  0.00  0.00     0.037 A 
ATOM     20  C   UNL d   1      48.085  34.865  50.672  0.00  0.00     0.005 A 
ATOM     21  C   UNL d   1      47.762  35.258  51.313  0.00  0.00     0.019 A 
ENDBRANCH  11  12
ENDBRANCH  10  11
ENDBRANCH   1  10
BRANCH   5  22
ATOM     22  N   UNL d   1      54.856  33.569  55.178  0.00  0.00    -0.114 N 
ATOM     23  O   UNL d   1      54.792  33.350  55.973  0.00  0.00    -0.532 OA
ATOM     24  O   UNL d   1      55.515  33.994  54.918  0.00  0.00    -0.532 OA
ENDBRANCH   5  22
TORSDOF 4
ENDMDL
MODEL 4
REMARK VINA RESULT:      -6.1      3.023      5.621
REMARK  4 active torsions:
REMARK  status: ('A' for Active; 'I' for Inactive)
REMARK    1  A    between atoms: C_15  and  C_2 
REMARK    2  A    between atoms: C_6  and  S_16 
REMARK    3  A    between atoms: N_8  and  C_11 
REMARK    4  A    between atoms: S_16  and  C_15 
ROOT
ATOM      1  C   UNL d   1      51.880  33.252  52.588  0.00  0.00     0.141 A 
ATOM      2  N   UNL d   1      51.750  32.460  52.480  0.00  0.00    -0.232 NA
ATOM      3  S   UNL d   1      52.577  33.349  53.024  0.00  0.00    -0.060 SA
ATOM      4  C   UNL d   1      52.367  32.042  52.849  0.00  0.00     0.090 A 
ATOM      5  C   UNL d   1      53.200  30.970  53.330  0.00  0.00     0.128 A 
ATOM      6  C   UNL d   1      52.879  32.580  53.185  0.00  0.00     0.049 A 
ATOM      7  C   UNL d   1      52.516  31.229  52.914  0.00  0.00     0.043 A 
ATOM      8  C   UNL d   1      53.706  31.511  53.663  0.00  0.00     0.024 A 
ATOM      9  C   UNL d   1      53.552  32.318  53.594  0.00  0.00     0.010 A 
ENDROOT
BRANCH   1  10
ATOM     10  S   UNL d   1      51.390  33.861  52.304  0.00  0.00    -0.059 SA
BRANCH  10  11
ATOM     11  C   UNL d   1      50.721  34.075  52.723  0.00  0.00     0.059 C 
BRANCH  11  12
ATOM     12  C   UNL d   1      50.049  34.359  52.318  0.00  0.00     0.112 A 
ATOM     13  C   UNL d   1      49.488  34.893  52.645  0.00  0.00     0.119 A 
ATOM     14  N   UNL d   1      48.927  35.014  52.045  0.00  0.00    -0.284 N 
ATOM     15 BR   UNL d   1      49.507  35.218  53.405  0.00  0.00    -0.028 Br
ATOM     16  C   UNL d   1      49.138  34.574  51.387  0.00  0.00     0.148 A 
ATOM     17  C   UNL d   1      48.252  35.477  52.038  0.00  0.00     0.082 A 
ATOM     18  N   UNL d   1      49.836  34.171  51.564  0.00  0.00    -0.226 NA
ATOM     19  C   UNL d   1      48.679  34.589  50.706  0.00  0.00     0.037 A 
ATOM     20  C   UNL d   1      48.000  35.056  50.700  0.00  0.00     0.005 A 
ATOM     21  C   UNL d   1      47.788  35.495  51.358  0.00  0.00     0.019 A 
ENDBRANCH  11  12
ENDBRANCH  10  11
ENDBRANCH   1  10
BRANCH   5  22
ATOM     22  N   UNL d   1      53.347  30.133  53.393  0.00  0.00    -0.114 N 
ATOM     23  O   UNL d   1      53.209  29.737  54.105  0.00  0.00    -0.532 OA
ATOM     24  O   UNL d   1      53.629  29.718  52.737  0.00  0.00    -0.532 OA
ENDBRANCH   5  22
TORSDOF 4
ENDMDL
MODEL 5
REMARK VINA RESULT:      -5.7     10.559     11.177
REMARK  4 active torsions:
REMARK  status: ('A' for Active; 'I' for Inactive)
REMARK    1  A    between atoms: C_15  and  C_2 
REMARK    2  A    between atoms: C_6  and  S_16 
REMARK    3  A    between atoms: N_8  and  C_11 
REMARK    4  A    between atoms: S_16  and  C_15 
ROOT
ATOM      1  C   UNL d   1      45.028  28.095  57.581  0.00  0.00     0.141 A 
ATOM      2  N   UNL d   1      45.016  28.191  58.386  0.00  0.00    -0.232 NA
ATOM      3  S   UNL d   1      44.992  28.841  57.225  0.00  0.00    -0.060 SA
ATOM      4  C   UNL d   1      44.972  29.005  58.550  0.00  0.00     0.090 A 
ATOM      5  C   UNL d   1      44.900  30.259  59.255  0.00  0.00     0.128 A 
ATOM      6  C   UNL d   1      44.956  29.411  57.843  0.00  0.00     0.049 A 
ATOM      7  C   UNL d   1      44.944  29.419  59.267  0.00  0.00     0.043 A 
ATOM      8  C   UNL d   1      44.885  30.657  58.548  0.00  0.00     0.024 A 
ATOM      9  C   UNL d   1      44.913  30.240  57.837  0.00  0.00     0.010 A 
ENDROOT
BRANCH   1  10
ATOM     10  S   UNL d   1      45.069  27.364  57.188  0.00  0.00    -0.059 SA
BRANCH  10  11
ATOM     11  C   UNL d   1      44.670  26.715  57.486  0.00  0.00     0.059 C 
BRANCH  11  12
ATOM     12  C   UNL d   1      44.659  25.999  57.059  0.00  0.00     0.112 A 
ATOM     13  C   UNL d   1      44.493  25.248  57.397  0.00  0.00     0.119 A 
ATOM     14  N   UNL d   1      44.547  24.709  56.766  0.00  0.00    -0.284 N 
ATOM     15 BR   UNL d   1      44.315  25.096  58.190  0.00  0.00    -0.028 Br
ATOM     16  C   UNL d   1      44.737  25.115  56.081  0.00  0.00     0.148 A 
ATOM     17  C   UNL d   1      44.441  23.897  56.754  0.00  0.00     0.082 A 
ATOM     18  N   UNL d   1      44.805  25.915  56.271  0.00  0.00    -0.226 NA
ATOM     19  C   UNL d   1      44.826  24.719  55.368  0.00  0.00     0.037 A 
ATOM     20  C   UNL d   1      44.719  23.901  55.357  0.00  0.00     0.005 A 
ATOM     21  C   UNL d   1      44.530  23.495  56.042  0.00  0.00     0.019 A 
ENDBRANCH  11  12
ENDBRANCH  10  11
ENDBRANCH   1  10
BRANCH   5  22
ATOM     22  N   UNL d   1      44.872  30.678  59.997  0.00  0.00    -0.114 N 
ATOM     23  O   UNL d   1      45.398  30.487  60.605  0.00  0.00    -0.532 OA
ATOM     24  O   UNL d   1      44.314  31.277  60.106  0.00  0.00    -0.532 OA
ENDBRANCH   5  22
TORSDOF 4
ENDMDL
MODEL 6
REMARK VINA RESULT:      -5.6     10.418     11.323
REMARK  4 active torsions:
REMARK  status: ('A' for Active; 'I' for Inactive)
REMARK    1  A    between atoms: C_15  and  C_2 
REMARK    2  A    between atoms: C_6  and  S_16 
REMARK    3  A    between atoms: N_8  and  C_11 
REMARK    4  A    between atoms: S_16  and  C_15 
ROOT
ATOM      1  C   UNL d   1      44.532  30.635  60.503  0.00  0.00     0.141 A 
ATOM      2  N   UNL d   1      44.547  31.267  61.010  0.00  0.00    -0.232 NA
ATOM      3  S   UNL d   1      44.458  29.941  60.946  0.00  0.00    -0.060 SA
ATOM      4  C   UNL d   1      44.481  30.977  61.787  0.00  0.00     0.090 A 
ATOM      5  C   UNL d   1      44.393  30.915  63.224  0.00  0.00     0.128 A 
ATOM      6  C   UNL d   1      44.426  30.164  61.757  0.00  0.00     0.049 A 
ATOM      7  C   UNL d   1      44.466  31.368  62.518  0.00  0.00     0.043 A 
ATOM      8  C   UNL d   1      44.339  30.106  63.186  0.00  0.00     0.024 A 
ATOM      9  C   UNL d   1      44.355  29.723  62.456  0.00  0.00     0.010 A 
ENDROOT
BRANCH   1  10
ATOM     10  S   UNL d   1      44.584  30.686  59.675  0.00  0.00    -0.059 SA
BRANCH  10  11
ATOM     11  C   UNL d   1      44.904  30.067  59.246  0.00  0.00     0.059 C 
BRANCH  11  12
ATOM     12  C   UNL d   1      44.825  30.050  58.416  0.00  0.00     0.112 A 
ATOM     13  C   UNL d   1      44.962  29.371  57.941  0.00  0.00     0.119 A 
ATOM     14  N   UNL d   1      44.816  29.618  57.161  0.00  0.00    -0.284 N 
ATOM     15 BR   UNL d   1      45.192  28.623  58.209  0.00  0.00    -0.028 Br
ATOM     16  C   UNL d   1      44.602  30.408  57.165  0.00  0.00     0.148 A 
ATOM     17  C   UNL d   1      44.859  29.201  56.457  0.00  0.00     0.082 A 
ATOM     18  N   UNL d   1      44.610  30.670  57.948  0.00  0.00    -0.226 NA
ATOM     19  C   UNL d   1      44.425  30.800  56.465  0.00  0.00     0.037 A 
ATOM     20  C   UNL d   1      44.468  30.379  55.758  0.00  0.00     0.005 A 
ATOM     21  C   UNL d   1      44.682  29.589  55.754  0.00  0.00     0.019 A 
ENDBRANCH  11  12
ENDBRANCH  10  11
ENDBRANCH   1  10
BRANCH   5  22
ATOM     22  N   UNL d   1      44.378  31.323  63.972  0.00  0.00    -0.114 N 
ATOM     23  O   UNL d   1      44.370  30.898  64.680  0.00  0.00    -0.532 OA
ATOM     24  O   UNL d   1      44.373  32.149  63.985  0.00  0.00    -0.532 OA
ENDBRANCH   5  22
TORSDOF 4
ENDMDL
MODEL 7
REMARK VINA RESULT:      -5.5     10.177     10.726
REMARK  4 active torsions:
REMARK  status: ('A' for Active; 'I' for Inactive)
REMARK    1  A    between atoms: C_15  and  C_2 
REMARK    2  A    between atoms: C_6  and  S_16 
REMARK    3  A    between atoms: N_8  and  C_11 
REMARK    4  A    between atoms: S_16  and  C_15 
ROOT
ATOM      1  C   UNL d   1      44.910  28.463  57.968  0.00  0.00     0.141 A 
ATOM      2  N   UNL d   1      44.677  28.821  57.279  0.00  0.00    -0.232 NA
ATOM      3  S   UNL d   1      45.108  29.048  58.517  0.00  0.00    -0.060 SA
ATOM      4  C   UNL d   1      44.726  29.645  57.386  0.00  0.00     0.090 A 
ATOM      5  C   UNL d   1      44.664  31.064  57.146  0.00  0.00     0.128 A 
ATOM      6  C   UNL d   1      44.990  29.793  58.143  0.00  0.00     0.049 A 
ATOM      7  C   UNL d   1      44.559  30.274  56.873  0.00  0.00     0.043 A 
ATOM      8  C   UNL d   1      44.927  31.204  57.900  0.00  0.00     0.024 A 
ATOM      9  C   UNL d   1      45.092  30.573  58.406  0.00  0.00     0.010 A 
ENDROOT
BRANCH   1  10
ATOM     10  S   UNL d   1      44.940  27.642  58.092  0.00  0.00    -0.059 SA
BRANCH  10  11
ATOM     11  C   UNL d   1      44.801  27.128  57.470  0.00  0.00     0.059 C 
BRANCH  11  12
ATOM     12  C   UNL d   1      44.694  26.314  57.618  0.00  0.00     0.112 A 
ATOM     13  C   UNL d   1      44.624  25.729  57.019  0.00  0.00     0.119 A 
ATOM     14  N   UNL d   1      44.528  25.011  57.426  0.00  0.00    -0.284 N 
ATOM     15 BR   UNL d   1      44.649  25.858  56.203  0.00  0.00    -0.028 Br
ATOM     16  C   UNL d   1      44.539  25.156  58.232  0.00  0.00     0.148 A 
ATOM     17  C   UNL d   1      44.432  24.249  57.140  0.00  0.00     0.082 A 
ATOM     18  N   UNL d   1      44.643  25.967  58.343  0.00  0.00    -0.226 NA
ATOM     19  C   UNL d   1      44.455  24.542  58.771  0.00  0.00     0.037 A 
ATOM     20  C   UNL d   1      44.358  23.776  58.482  0.00  0.00     0.005 A 
ATOM     21  C   UNL d   1      44.347  23.631  57.676  0.00  0.00     0.019 A 
ENDBRANCH  11  12
ENDBRANCH  10  11
ENDBRANCH   1  10
BRANCH   5  22
ATOM     22  N   UNL d   1      44.490  31.706  56.613  0.00  0.00    -0.114 N 
ATOM     23  O   UNL d   1      44.409  31.567  55.803  0.00  0.00    -0.532 OA
ATOM     24  O   UNL d   1      44.402  32.471  56.912  0.00  0.00    -0.532 OA
ENDBRANCH   5  22
TORSDOF 4
ENDMDL
MODEL 8
REMARK VINA RESULT:      -5.3     11.202     11.810
REMARK  4 active torsions:
REMARK  status: ('A' for Active; 'I' for Inactive)
REMARK    1  A    between atoms: C_15  and  C_2 
REMARK    2  A    between atoms: C_6  and  S_16 
REMARK    3  A    between atoms: N_8  and  C_11 
REMARK    4  A    between atoms: S_16  and  C_15 
ROOT
ATOM      1  C   UNL d   1      44.388  28.804  60.782  0.00  0.00     0.141 A 
ATOM      2  N   UNL d   1      44.435  29.610  60.704  0.00  0.00    -0.232 NA
ATOM      3  S   UNL d   1      44.335  28.619  61.586  0.00  0.00    -0.060 SA
ATOM      4  C   UNL d   1      44.411  29.946  61.465  0.00  0.00     0.090 A 
ATOM      5  C   UNL d   1      44.403  30.905  62.540  0.00  0.00     0.128 A 
ATOM      6  C   UNL d   1      44.350  29.344  62.012  0.00  0.00     0.049 A 
ATOM      7  C   UNL d   1      44.439  30.735  61.716  0.00  0.00     0.043 A 
ATOM      8  C   UNL d   1      44.342  30.302  63.079  0.00  0.00     0.024 A 
ATOM      9  C   UNL d   1      44.315  29.518  62.823  0.00  0.00     0.010 A 
ENDROOT
BRANCH   1  10
ATOM     10  S   UNL d   1      44.394  28.263  60.152  0.00  0.00    -0.059 SA
BRANCH  10  11
ATOM     11  C   UNL d   1      44.756  28.461  59.445  0.00  0.00     0.059 C 
BRANCH  11  12
ATOM     12  C   UNL d   1      44.797  27.903  58.827  0.00  0.00     0.112 A 
ATOM     13  C   UNL d   1      44.930  28.098  58.020  0.00  0.00     0.119 A 
ATOM     14  N   UNL d   1      44.925  27.371  57.617  0.00  0.00    -0.284 N 
ATOM     15 BR   UNL d   1      45.041  28.857  57.711  0.00  0.00    -0.028 Br
ATOM     16  C   UNL d   1      44.795  26.767  58.154  0.00  0.00     0.148 A 
ATOM     17  C   UNL d   1      45.026  27.208  56.821  0.00  0.00     0.082 A 
ATOM     18  N   UNL d   1      44.716  27.105  58.903  0.00  0.00    -0.226 NA
ATOM     19  C   UNL d   1      44.762  25.984  57.907  0.00  0.00     0.037 A 
ATOM     20  C   UNL d   1      44.864  25.821  57.105  0.00  0.00     0.005 A 
ATOM     21  C   UNL d   1      44.994  26.425  56.568  0.00  0.00     0.019 A 
ENDBRANCH  11  12
ENDBRANCH  10  11
ENDBRANCH   1  10
BRANCH   5  22
ATOM     22  N   UNL d   1      44.432  31.719  62.791  0.00  0.00    -0.114 N 
ATOM     23  O   UNL d   1      44.389  31.911  63.593  0.00  0.00    -0.532 OA
ATOM     24  O   UNL d   1      44.502  32.317  62.226  0.00  0.00    -0.532 OA
ENDBRANCH   5  22
TORSDOF 4
ENDMDL
