MODEL 1
REMARK VINA RESULT:      23.6      0.000      0.000
REMARK  2 active torsions:
REMARK  status: ('A' for Active; 'I' for Inactive)
REMARK    1  A    between atoms: C_9  and  C_3 
REMARK    2  A    between atoms: C_12  and  N_4 
ROOT
ATOM      1  C   UNL d   1      46.163 -18.900  43.494  0.00  0.00     0.035 A 
ATOM      2  C   UNL d   1      46.139 -18.079  43.430  0.00  0.00     0.065 A 
ATOM      3  C   UNL d   1      46.001 -19.099  44.272  0.00  0.00     0.166 A 
ATOM      4  N   UNL d   1      45.961 -17.775  44.174  0.00  0.00    -0.233 N 
ATOM      5  N   UNL d   1      45.876 -18.406  44.693  0.00  0.00    -0.159 NA
ATOM      6  C   UNL d   1      46.299 -18.148  42.717  0.00  0.00     0.057 A 
ATOM      7  C   UNL d   1      46.339 -19.016  42.718  0.00  0.00    -0.020 A 
ATOM      8  C   UNL d   1      46.464 -19.627  42.275  0.00  0.00     0.027 A 
ATOM      9  C   UNL d   1      46.399 -17.601  42.145  0.00  0.00    -0.021 A 
ATOM     10  C   UNL d   1      46.425 -18.358  42.186  0.00  0.00    -0.008 A 
ATOM     11  C   UNL d   1      46.244 -17.409  42.808  0.00  0.00     0.011 C 
ATOM     12  C   UNL d   1      46.435 -20.320  42.554  0.00  0.00     0.005 C 
ATOM     13  C   UNL d   1      46.626 -19.915  41.602  0.00  0.00     0.005 C 
ENDROOT
BRANCH   4  14
ATOM     14  C   UNL d   1      45.880 -16.958  44.369  0.00  0.00     0.083 A 
ATOM     15  C   UNL d   1      45.163 -16.548  44.168  0.00  0.00     0.019 A 
ATOM     16  C   UNL d   1      45.087 -15.735  44.363  0.00  0.00     0.002 A 
ATOM     17  C   UNL d   1      45.711 -15.330  44.752  0.00  0.00     0.000 A 
ATOM     18  C   UNL d   1      46.428 -15.745  44.952  0.00  0.00     0.002 A 
ATOM     19  C   UNL d   1      46.501 -16.557  44.755  0.00  0.00     0.019 A 
ENDBRANCH   4  14
BRANCH   3  20
ATOM     20  C   UNL d   1      45.968 -19.879  44.584  0.00  0.00     0.231 C 
ATOM     21  O   UNL d   1      46.646 -20.225  44.955  0.00  0.00    -0.643 OA
ATOM     22  O   UNL d   1      45.249 -20.322  44.524  0.00  0.00    -0.643 OA
ENDBRANCH   3  20
TORSDOF 2
ENDMDL
