MODEL 1
REMARK VINA RESULT:      -2.9      0.000      0.000
REMARK  6 active torsions:
REMARK  status: ('A' for Active; 'I' for Inactive)
REMARK    1  A    between atoms: C_5  and  C_4 
REMARK    2  A    between atoms: C_6  and  C_5 
REMARK       I    between atoms: N_9  and  C_6 
REMARK    3  A    between atoms: C_10  and  N_9 
REMARK    4  A    between atoms: O_14  and  C_13 
REMARK    5  A    between atoms: C_19  and  O_14 
REMARK    6  A    between atoms: C_20  and  C_19 
ROOT
ATOM      1  C   UNL d   1      32.979  18.534 -23.298  0.00  0.00     0.281 C 
ATOM      2  N   UNL d   1      32.489  18.126 -23.794  0.00  0.00    -0.206 NA
ATOM      3  O   UNL d   1      33.203  18.201 -22.588  0.00  0.00    -0.265 OA
ENDROOT
BRANCH   1   4
ATOM      4  C   UNL d   1      33.241  19.272 -23.516  0.00  0.00     0.086 C 
BRANCH   4   5
ATOM      5  C   UNL d   1      33.239  19.896 -22.974  0.00  0.00     0.144 A 
ATOM      6  C   UNL d   1      33.237  20.678 -23.240  0.00  0.00     0.297 A 
ATOM      7  N   UNL d   1      33.235  21.307 -22.704  0.00  0.00    -0.205 NA
ATOM      8  O   UNL d   1      33.236  20.849 -24.052  0.00  0.00    -0.264 OA
ATOM      9  C   UNL d   1      33.235  21.139 -21.885  0.00  0.00     0.102 A 
ATOM     10  C   UNL d   1      33.238  20.357 -21.619  0.00  0.00     0.099 A 
ATOM     11  C   UNL d   1      33.234  21.768 -21.350  0.00  0.00     0.021 A 
ATOM     12  N   UNL d   1      33.240  19.730 -22.168  0.00  0.00    -0.239 NA
ATOM     13  C   UNL d   1      33.239  20.191 -20.814  0.00  0.00     0.021 A 
ATOM     14  C   UNL d   1      33.237  20.814 -20.277  0.00  0.00     0.002 A 
ATOM     15  C   UNL d   1      33.234  21.596 -20.543  0.00  0.00     0.002 A 
ENDBRANCH   4   5
ENDBRANCH   1   4
BRANCH   2  16
ATOM     16  C   UNL d   1      32.125  17.271 -23.648  0.00  0.00     0.107 A 
ATOM     17  C   UNL d   1      31.369  17.007 -23.870  0.00  0.00     0.118 A 
ATOM     18  C   UNL d   1      31.180  16.229 -23.679  0.00  0.00     0.026 A 
ATOM     19  C   UNL d   1      31.732  15.716 -23.270  0.00  0.00     0.002 A 
ATOM     20  C   UNL d   1      32.446  16.006 -23.074  0.00  0.00     0.002 A 
ATOM     21  C   UNL d   1      32.656  16.778 -23.255  0.00  0.00     0.021 A 
BRANCH  17  22
ATOM     22  O   UNL d   1      30.815  17.490 -24.269  0.00  0.00    -0.304 OA
BRANCH  22  23
ATOM     23  C   UNL d   1      30.047  17.206 -24.415  0.00  0.00     0.123 C 
BRANCH  23  24
ATOM     24  C   UNL d   1      29.528  17.592 -24.971  0.00  0.00     0.027 C 
ATOM     25  C   UNL d   1      28.692  17.498 -24.948  0.00  0.00     0.002 C 
ENDBRANCH  23  24
ENDBRANCH  22  23
ENDBRANCH  17  22
ENDBRANCH   2  16
TORSDOF 6
ENDMDL
MODEL 2
REMARK VINA RESULT:      -2.7      1.206      4.979
REMARK  6 active torsions:
REMARK  status: ('A' for Active; 'I' for Inactive)
REMARK    1  A    between atoms: C_5  and  C_4 
REMARK    2  A    between atoms: C_6  and  C_5 
REMARK       I    between atoms: N_9  and  C_6 
REMARK    3  A    between atoms: C_10  and  N_9 
REMARK    4  A    between atoms: O_14  and  C_13 
REMARK    5  A    between atoms: C_19  and  O_14 
REMARK    6  A    between atoms: C_20  and  C_19 
ROOT
ATOM      1  C   UNL d   1      32.701  18.249 -24.025  0.00  0.00     0.281 C 
ATOM      2  N   UNL d   1      33.108  18.778 -23.569  0.00  0.00    -0.206 NA
ATOM      3  O   UNL d   1      32.274  18.515 -24.667  0.00  0.00    -0.265 OA
ENDROOT
BRANCH   1   4
ATOM      4  C   UNL d   1      32.724  17.459 -23.835  0.00  0.00     0.086 C 
BRANCH   4   5
ATOM      5  C   UNL d   1      32.028  17.017 -23.786  0.00  0.00     0.144 A 
ATOM      6  C   UNL d   1      32.044  16.245 -23.494  0.00  0.00     0.297 A 
ATOM      7  N   UNL d   1      31.351  15.797 -23.443  0.00  0.00    -0.205 NA
ATOM      8  O   UNL d   1      32.757  15.902 -23.245  0.00  0.00    -0.264 OA
ATOM      9  C   UNL d   1      30.631  16.139 -23.693  0.00  0.00     0.102 A 
ATOM     10  C   UNL d   1      30.614  16.912 -23.985  0.00  0.00     0.099 A 
ATOM     11  C   UNL d   1      29.939  15.692 -23.641  0.00  0.00     0.021 A 
ATOM     12  N   UNL d   1      31.318  17.355 -24.033  0.00  0.00    -0.239 NA
ATOM     13  C   UNL d   1      29.906  17.249 -24.231  0.00  0.00     0.021 A 
ATOM     14  C   UNL d   1      29.214  16.807 -24.182  0.00  0.00     0.002 A 
ATOM     15  C   UNL d   1      29.230  16.035 -23.890  0.00  0.00     0.002 A 
ENDBRANCH   4   5
ENDBRANCH   1   4
BRANCH   2  16
ATOM     16  C   UNL d   1      33.153  19.709 -23.693  0.00  0.00     0.107 A 
ATOM     17  C   UNL d   1      33.156  20.291 -23.098  0.00  0.00     0.118 A 
ATOM     18  C   UNL d   1      33.199  21.074 -23.350  0.00  0.00     0.026 A 
ATOM     19  C   UNL d   1      33.240  21.281 -24.180  0.00  0.00     0.002 A 
ATOM     20  C   UNL d   1      33.235  20.695 -24.719  0.00  0.00     0.002 A 
ATOM     21  C   UNL d   1      33.192  19.908 -24.491  0.00  0.00     0.021 A 
BRANCH  17  22
ATOM     22  O   UNL d   1      33.117  20.111 -22.282  0.00  0.00    -0.304 OA
BRANCH  22  23
ATOM     23  C   UNL d   1      33.163  20.723 -21.720  0.00  0.00     0.123 C 
BRANCH  23  24
ATOM     24  C   UNL d   1      32.844  20.630 -20.935  0.00  0.00     0.027 C 
ATOM     25  C   UNL d   1      32.980  21.193 -20.324  0.00  0.00     0.002 C 
ENDBRANCH  23  24
ENDBRANCH  22  23
ENDBRANCH  17  22
ENDBRANCH   2  16
TORSDOF 6
ENDMDL
MODEL 3
REMARK VINA RESULT:      -2.6      1.344      4.849
REMARK  6 active torsions:
REMARK  status: ('A' for Active; 'I' for Inactive)
REMARK    1  A    between atoms: C_5  and  C_4 
REMARK    2  A    between atoms: C_6  and  C_5 
REMARK       I    between atoms: N_9  and  C_6 
REMARK    3  A    between atoms: C_10  and  N_9 
REMARK    4  A    between atoms: O_14  and  C_13 
REMARK    5  A    between atoms: C_19  and  O_14 
REMARK    6  A    between atoms: C_20  and  C_19 
ROOT
ATOM      1  C   UNL d   1      32.824  19.849 -22.838  0.00  0.00     0.281 C 
ATOM      2  N   UNL d   1      33.241  20.417 -22.444  0.00  0.00    -0.206 NA
ATOM      3  O   UNL d   1      32.016  19.800 -22.737  0.00  0.00    -0.265 OA
ENDROOT
BRANCH   1   4
ATOM      4  C   UNL d   1      33.217  19.335 -23.328  0.00  0.00     0.086 C 
BRANCH   4   5
ATOM      5  C   UNL d   1      32.802  18.773 -23.770  0.00  0.00     0.144 A 
ATOM      6  C   UNL d   1      32.728  18.857 -24.588  0.00  0.00     0.297 A 
ATOM      7  N   UNL d   1      32.314  18.299 -25.036  0.00  0.00    -0.205 NA
ATOM      8  O   UNL d   1      33.069  19.505 -24.979  0.00  0.00    -0.264 OA
ATOM      9  C   UNL d   1      31.970  17.645 -24.645  0.00  0.00     0.102 A 
ATOM     10  C   UNL d   1      32.043  17.560 -23.827  0.00  0.00     0.099 A 
ATOM     11  C   UNL d   1      31.556  17.088 -25.093  0.00  0.00     0.021 A 
ATOM     12  N   UNL d   1      32.463  18.128 -23.385  0.00  0.00    -0.239 NA
ATOM     13  C   UNL d   1      31.705  16.917 -23.442  0.00  0.00     0.021 A 
ATOM     14  C   UNL d   1      31.292  16.359 -23.883  0.00  0.00     0.002 A 
ATOM     15  C   UNL d   1      31.218  16.444 -24.702  0.00  0.00     0.002 A 
ENDBRANCH   4   5
ENDBRANCH   1   4
BRANCH   2  16
ATOM     16  C   UNL d   1      32.895  21.063 -21.854  0.00  0.00     0.107 A 
ATOM     17  C   UNL d   1      32.906  21.888 -21.956  0.00  0.00     0.118 A 
ATOM     18  C   UNL d   1      32.564  22.338 -21.357  0.00  0.00     0.026 A 
ATOM     19  C   UNL d   1      32.215  21.977 -20.662  0.00  0.00     0.002 A 
ATOM     20  C   UNL d   1      32.224  21.183 -20.601  0.00  0.00     0.002 A 
ATOM     21  C   UNL d   1      32.559  20.715 -21.186  0.00  0.00     0.021 A 
BRANCH  17  22
ATOM     22  O   UNL d   1      33.241  22.261 -22.625  0.00  0.00    -0.304 OA
BRANCH  22  23
ATOM     23  C   UNL d   1      32.885  22.944 -22.941  0.00  0.00     0.123 C 
BRANCH  23  24
ATOM     24  C   UNL d   1      33.041  23.198 -23.740  0.00  0.00     0.027 C 
ATOM     25  C   UNL d   1      32.517  23.702 -24.163  0.00  0.00     0.002 C 
ENDBRANCH  23  24
ENDBRANCH  22  23
ENDBRANCH  17  22
ENDBRANCH   2  16
TORSDOF 6
ENDMDL
MODEL 4
REMARK VINA RESULT:      -1.9      1.863      5.417
REMARK  6 active torsions:
REMARK  status: ('A' for Active; 'I' for Inactive)
REMARK    1  A    between atoms: C_5  and  C_4 
REMARK    2  A    between atoms: C_6  and  C_5 
REMARK       I    between atoms: N_9  and  C_6 
REMARK    3  A    between atoms: C_10  and  N_9 
REMARK    4  A    between atoms: O_14  and  C_13 
REMARK    5  A    between atoms: C_19  and  O_14 
REMARK    6  A    between atoms: C_20  and  C_19 
ROOT
ATOM      1  C   UNL d   1      32.840  20.458 -21.790  0.00  0.00     0.281 C 
ATOM      2  N   UNL d   1      33.241  21.122 -21.565  0.00  0.00    -0.206 NA
ATOM      3  O   UNL d   1      32.072  20.522 -22.057  0.00  0.00    -0.265 OA
ENDROOT
BRANCH   1   4
ATOM      4  C   UNL d   1      33.209  19.736 -21.745  0.00  0.00     0.086 C 
BRANCH   4   5
ATOM      5  C   UNL d   1      33.112  19.175 -22.345  0.00  0.00     0.144 A 
ATOM      6  C   UNL d   1      33.128  18.369 -22.169  0.00  0.00     0.297 A 
ATOM      7  N   UNL d   1      33.032  17.803 -22.764  0.00  0.00    -0.205 NA
ATOM      8  O   UNL d   1      33.241  18.108 -21.389  0.00  0.00    -0.264 OA
ATOM      9  C   UNL d   1      32.919  18.062 -23.551  0.00  0.00     0.102 A 
ATOM     10  C   UNL d   1      32.903  18.869 -23.727  0.00  0.00     0.099 A 
ATOM     11  C   UNL d   1      32.823  17.497 -24.145  0.00  0.00     0.021 A 
ATOM     12  N   UNL d   1      33.000  19.430 -23.120  0.00  0.00    -0.239 NA
ATOM     13  C   UNL d   1      32.791  19.124 -24.501  0.00  0.00     0.021 A 
ATOM     14  C   UNL d   1      32.695  18.565 -25.097  0.00  0.00     0.002 A 
ATOM     15  C   UNL d   1      32.711  17.758 -24.920  0.00  0.00     0.002 A 
ENDBRANCH   4   5
ENDBRANCH   1   4
BRANCH   2  16
ATOM     16  C   UNL d   1      32.918  22.005 -21.574  0.00  0.00     0.107 A 
ATOM     17  C   UNL d   1      32.687  22.458 -20.916  0.00  0.00     0.118 A 
ATOM     18  C   UNL d   1      32.422  23.222 -21.069  0.00  0.00     0.026 A 
ATOM     19  C   UNL d   1      32.384  23.537 -21.865  0.00  0.00     0.002 A 
ATOM     20  C   UNL d   1      32.613  23.072 -22.469  0.00  0.00     0.002 A 
ATOM     21  C   UNL d   1      32.881  22.308 -22.340  0.00  0.00     0.021 A 
BRANCH  17  22
ATOM     22  O   UNL d   1      32.716  22.171 -20.131  0.00  0.00    -0.304 OA
BRANCH  22  23
ATOM     23  C   UNL d   1      32.914  22.686 -19.508  0.00  0.00     0.123 C 
BRANCH  23  24
ATOM     24  C   UNL d   1      32.720  22.500 -18.698  0.00  0.00     0.027 C 
ATOM     25  C   UNL d   1      32.915  23.011 -18.059  0.00  0.00     0.002 C 
ENDBRANCH  23  24
ENDBRANCH  22  23
ENDBRANCH  17  22
ENDBRANCH   2  16
TORSDOF 6
ENDMDL
MODEL 5
REMARK VINA RESULT:      -1.9      1.505      2.719
REMARK  6 active torsions:
REMARK  status: ('A' for Active; 'I' for Inactive)
REMARK    1  A    between atoms: C_5  and  C_4 
REMARK    2  A    between atoms: C_6  and  C_5 
REMARK       I    between atoms: N_9  and  C_6 
REMARK    3  A    between atoms: C_10  and  N_9 
REMARK    4  A    between atoms: O_14  and  C_13 
REMARK    5  A    between atoms: C_19  and  O_14 
REMARK    6  A    between atoms: C_20  and  C_19 
ROOT
ATOM      1  C   UNL d   1      32.861  19.710 -22.323  0.00  0.00     0.281 C 
ATOM      2  N   UNL d   1      33.240  19.195 -22.816  0.00  0.00    -0.206 NA
ATOM      3  O   UNL d   1      32.107  19.961 -22.504  0.00  0.00    -0.265 OA
ENDROOT
BRANCH   1   4
ATOM      4  C   UNL d   1      33.239  19.969 -21.652  0.00  0.00     0.086 C 
BRANCH   4   5
ATOM      5  C   UNL d   1      33.091  20.725 -21.351  0.00  0.00     0.144 A 
ATOM      6  C   UNL d   1      33.049  20.848 -20.535  0.00  0.00     0.297 A 
ATOM      7  N   UNL d   1      32.902  21.601 -20.228  0.00  0.00    -0.205 NA
ATOM      8  O   UNL d   1      33.154  20.217 -20.007  0.00  0.00    -0.264 OA
ATOM      9  C   UNL d   1      32.796  22.239 -20.758  0.00  0.00     0.102 A 
ATOM     10  C   UNL d   1      32.838  22.116 -21.573  0.00  0.00     0.099 A 
ATOM     11  C   UNL d   1      32.648  22.990 -20.450  0.00  0.00     0.021 A 
ATOM     12  N   UNL d   1      32.987  21.353 -21.873  0.00  0.00    -0.239 NA
ATOM     13  C   UNL d   1      32.734  22.743 -22.095  0.00  0.00     0.021 A 
ATOM     14  C   UNL d   1      32.587  23.494 -21.794  0.00  0.00     0.002 A 
ATOM     15  C   UNL d   1      32.545  23.617 -20.978  0.00  0.00     0.002 A 
ENDBRANCH   4   5
ENDBRANCH   1   4
BRANCH   2  16
ATOM     16  C   UNL d   1      32.904  18.830 -23.615  0.00  0.00     0.107 A 
ATOM     17  C   UNL d   1      32.811  18.023 -23.793  0.00  0.00     0.118 A 
ATOM     18  C   UNL d   1      32.502  17.843 -24.535  0.00  0.00     0.026 A 
ATOM     19  C   UNL d   1      32.287  18.454 -25.096  0.00  0.00     0.002 A 
ATOM     20  C   UNL d   1      32.391  19.215 -24.888  0.00  0.00     0.002 A 
ATOM     21  C   UNL d   1      32.697  19.417 -24.154  0.00  0.00     0.021 A 
BRANCH  17  22
ATOM     22  O   UNL d   1      33.014  17.410 -23.261  0.00  0.00    -0.304 OA
BRANCH  22  23
ATOM     23  C   UNL d   1      32.768  16.630 -23.414  0.00  0.00     0.123 C 
BRANCH  23  24
ATOM     24  C   UNL d   1      32.554  16.099 -22.781  0.00  0.00     0.027 C 
ATOM     25  C   UNL d   1      33.040  15.453 -22.551  0.00  0.00     0.002 C 
ENDBRANCH  23  24
ENDBRANCH  22  23
ENDBRANCH  17  22
ENDBRANCH   2  16
TORSDOF 6
ENDMDL
