MODEL 1
REMARK VINA RESULT:      -8.5      0.000      0.000
REMARK  4 active torsions:
REMARK  status: ('A' for Active; 'I' for Inactive)
REMARK    1  A    between atoms: N_3  and  C_1 
REMARK       I    between atoms: C_7  and  N_3 
REMARK    2  A    between atoms: C_11  and  C_7 
REMARK    3  A    between atoms: C_12  and  C_11 
REMARK    4  A    between atoms: C_13  and  C_12 
ROOT
ATOM      1  C   UNL d   1      52.928  34.166  54.173  0.00  0.00     0.124 A 
ATOM      2  C   UNL d   1      52.524  34.675  53.660  0.00  0.00     0.093 A 
ATOM      3  C   UNL d   1      51.989  34.456  53.072  0.00  0.00     0.103 C 
ATOM      4  S   UNL d   1      53.400  34.626  54.664  0.00  0.00    -0.067 SA
ATOM      5  N   UNL d   1      51.471  34.259  52.502  0.00  0.00    -0.191 NA
ATOM      6  C   UNL d   1      52.753  35.457  53.841  0.00  0.00     0.019 A 
ATOM      7  C   UNL d   1      53.296  35.420  54.463  0.00  0.00     0.038 A 
ENDROOT
BRANCH   1   8
ATOM      8  N   UNL d   1      52.866  33.344  54.187  0.00  0.00    -0.201 NA
ATOM      9  C   UNL d   1      53.540  32.885  54.320  0.00  0.00     0.280 C 
ATOM     10  O   UNL d   1      54.271  33.246  54.439  0.00  0.00    -0.265 OA
BRANCH   9  11
ATOM     11  C   UNL d   1      53.476  32.060  54.334  0.00  0.00     0.062 C 
BRANCH  11  12
ATOM     12  C   UNL d   1      53.726  31.614  53.688  0.00  0.00     0.005 C 
BRANCH  12  13
ATOM     13  C   UNL d   1      53.438  30.835  53.579  0.00  0.00     0.000 A 
ATOM     14  C   UNL d   1      53.616  30.244  54.129  0.00  0.00     0.000 A 
ATOM     15  C   UNL d   1      53.334  29.485  54.020  0.00  0.00     0.000 A 
ATOM     16  C   UNL d   1      52.875  29.306  53.366  0.00  0.00     0.000 A 
ATOM     17  C   UNL d   1      52.697  29.894  52.817  0.00  0.00     0.000 A 
ATOM     18  C   UNL d   1      52.976  30.653  52.922  0.00  0.00     0.000 A 
ENDBRANCH  12  13
ENDBRANCH  11  12
ENDBRANCH   9  11
ENDBRANCH   1   8
TORSDOF 4
ENDMDL
MODEL 2
REMARK VINA RESULT:      -7.9      2.034      4.095
REMARK  4 active torsions:
REMARK  status: ('A' for Active; 'I' for Inactive)
REMARK    1  A    between atoms: N_3  and  C_1 
REMARK       I    between atoms: C_7  and  N_3 
REMARK    2  A    between atoms: C_11  and  C_7 
REMARK    3  A    between atoms: C_12  and  C_11 
REMARK    4  A    between atoms: C_13  and  C_12 
ROOT
ATOM      1  C   UNL d   1      53.212  33.103  53.942  0.00  0.00     0.124 A 
ATOM      2  C   UNL d   1      53.787  33.450  54.427  0.00  0.00     0.093 A 
ATOM      3  C   UNL d   1      53.699  34.134  54.880  0.00  0.00     0.103 C 
ATOM      4  S   UNL d   1      53.543  32.434  53.599  0.00  0.00    -0.067 SA
ATOM      5  N   UNL d   1      53.628  34.791  55.321  0.00  0.00    -0.191 NA
ATOM      6  C   UNL d   1      54.478  32.986  54.378  0.00  0.00     0.019 A 
ATOM      7  C   UNL d   1      54.322  32.358  53.864  0.00  0.00     0.038 A 
ENDROOT
BRANCH   1   8
ATOM      8  N   UNL d   1      52.445  33.381  53.826  0.00  0.00    -0.201 NA
ATOM      9  C   UNL d   1      52.055  33.223  53.115  0.00  0.00     0.280 C 
ATOM     10  O   UNL d   1      52.431  32.790  52.524  0.00  0.00    -0.265 OA
BRANCH   9  11
ATOM     11  C   UNL d   1      51.285  33.503  53.001  0.00  0.00     0.062 C 
BRANCH  11  12
ATOM     12  C   UNL d   1      51.140  34.112  52.466  0.00  0.00     0.005 C 
BRANCH  12  13
ATOM     13  C   UNL d   1      50.359  34.386  52.343  0.00  0.00     0.000 A 
ATOM     14  C   UNL d   1      49.967  34.810  52.934  0.00  0.00     0.000 A 
ATOM     15  C   UNL d   1      49.205  35.076  52.812  0.00  0.00     0.000 A 
ATOM     16  C   UNL d   1      48.825  34.925  52.102  0.00  0.00     0.000 A 
ATOM     17  C   UNL d   1      49.214  34.504  51.510  0.00  0.00     0.000 A 
ATOM     18  C   UNL d   1      49.975  34.236  51.629  0.00  0.00     0.000 A 
ENDBRANCH  12  13
ENDBRANCH  11  12
ENDBRANCH   9  11
ENDBRANCH   1   8
TORSDOF 4
ENDMDL
MODEL 3
REMARK VINA RESULT:      -7.9      1.719      3.940
REMARK  4 active torsions:
REMARK  status: ('A' for Active; 'I' for Inactive)
REMARK    1  A    between atoms: N_3  and  C_1 
REMARK       I    between atoms: C_7  and  N_3 
REMARK    2  A    between atoms: C_11  and  C_7 
REMARK    3  A    between atoms: C_12  and  C_11 
REMARK    4  A    between atoms: C_13  and  C_12 
ROOT
ATOM      1  C   UNL d   1      53.416  33.279  54.365  0.00  0.00     0.124 A 
ATOM      2  C   UNL d   1      53.966  32.660  54.385  0.00  0.00     0.093 A 
ATOM      3  C   UNL d   1      53.876  31.913  54.046  0.00  0.00     0.103 C 
ATOM      4  S   UNL d   1      53.740  33.916  54.772  0.00  0.00    -0.067 SA
ATOM      5  N   UNL d   1      53.803  31.190  53.725  0.00  0.00    -0.191 NA
ATOM      6  C   UNL d   1      54.634  32.923  54.810  0.00  0.00     0.019 A 
ATOM      7  C   UNL d   1      54.488  33.701  55.047  0.00  0.00     0.038 A 
ENDROOT
BRANCH   1   8
ATOM      8  N   UNL d   1      52.677  33.259  54.001  0.00  0.00    -0.201 NA
ATOM      9  C   UNL d   1      52.336  33.960  53.728  0.00  0.00     0.280 C 
ATOM     10  O   UNL d   1      52.731  34.676  53.819  0.00  0.00    -0.265 OA
BRANCH   9  11
ATOM     11  C   UNL d   1      51.593  33.937  53.363  0.00  0.00     0.062 C 
BRANCH  11  12
ATOM     12  C   UNL d   1      51.379  34.518  52.820  0.00  0.00     0.005 C 
BRANCH  12  13
ATOM     13  C   UNL d   1      50.623  34.503  52.463  0.00  0.00     0.000 A 
ATOM     14  C   UNL d   1      49.961  34.780  52.875  0.00  0.00     0.000 A 
ATOM     15  C   UNL d   1      49.224  34.763  52.524  0.00  0.00     0.000 A 
ATOM     16  C   UNL d   1      49.136  34.472  51.764  0.00  0.00     0.000 A 
ATOM     17  C   UNL d   1      49.793  34.196  51.352  0.00  0.00     0.000 A 
ATOM     18  C   UNL d   1      50.531  34.211  51.698  0.00  0.00     0.000 A 
ENDBRANCH  12  13
ENDBRANCH  11  12
ENDBRANCH   9  11
ENDBRANCH   1   8
TORSDOF 4
ENDMDL
MODEL 4
REMARK VINA RESULT:      -7.3      3.465      4.765
REMARK  4 active torsions:
REMARK  status: ('A' for Active; 'I' for Inactive)
REMARK    1  A    between atoms: N_3  and  C_1 
REMARK       I    between atoms: C_7  and  N_3 
REMARK    2  A    between atoms: C_11  and  C_7 
REMARK    3  A    between atoms: C_12  and  C_11 
REMARK    4  A    between atoms: C_13  and  C_12 
ROOT
ATOM      1  C   UNL d   1      48.406  35.464  52.525  0.00  0.00     0.124 A 
ATOM      2  C   UNL d   1      47.828  35.979  52.821  0.00  0.00     0.093 A 
ATOM      3  C   UNL d   1      47.831  36.347  53.559  0.00  0.00     0.103 C 
ATOM      4  S   UNL d   1      48.174  35.233  51.771  0.00  0.00    -0.067 SA
ATOM      5  N   UNL d   1      47.821  36.709  54.266  0.00  0.00    -0.191 NA
ATOM      6  C   UNL d   1      47.236  36.061  52.239  0.00  0.00     0.019 A 
ATOM      7  C   UNL d   1      47.456  35.597  51.591  0.00  0.00     0.038 A 
ENDROOT
BRANCH   1   8
ATOM      8  N   UNL d   1      49.091  35.228  52.918  0.00  0.00    -0.201 NA
ATOM      9  C   UNL d   1      49.641  34.749  52.530  0.00  0.00     0.280 C 
ATOM     10  O   UNL d   1      49.506  34.507  51.754  0.00  0.00    -0.265 OA
BRANCH   9  11
ATOM     11  C   UNL d   1      50.328  34.513  52.927  0.00  0.00     0.062 C 
BRANCH  11  12
ATOM     12  C   UNL d   1      50.950  34.170  52.511  0.00  0.00     0.005 C 
BRANCH  12  13
ATOM     13  C   UNL d   1      51.678  34.016  52.894  0.00  0.00     0.000 A 
ATOM     14  C   UNL d   1      51.841  33.263  53.194  0.00  0.00     0.000 A 
ATOM     15  C   UNL d   1      52.552  33.115  53.567  0.00  0.00     0.000 A 
ATOM     16  C   UNL d   1      53.107  33.712  53.647  0.00  0.00     0.000 A 
ATOM     17  C   UNL d   1      52.947  34.463  53.350  0.00  0.00     0.000 A 
ATOM     18  C   UNL d   1      52.238  34.614  52.976  0.00  0.00     0.000 A 
ENDBRANCH  12  13
ENDBRANCH  11  12
ENDBRANCH   9  11
ENDBRANCH   1   8
TORSDOF 4
ENDMDL
MODEL 5
REMARK VINA RESULT:      -7.2      2.445      3.769
REMARK  4 active torsions:
REMARK  status: ('A' for Active; 'I' for Inactive)
REMARK    1  A    between atoms: N_3  and  C_1 
REMARK       I    between atoms: C_7  and  N_3 
REMARK    2  A    between atoms: C_11  and  C_7 
REMARK    3  A    between atoms: C_12  and  C_11 
REMARK    4  A    between atoms: C_13  and  C_12 
ROOT
ATOM      1  C   UNL d   1      49.822  34.507  52.318  0.00  0.00     0.124 A 
ATOM      2  C   UNL d   1      49.155  34.996  52.360  0.00  0.00     0.093 A 
ATOM      3  C   UNL d   1      48.911  35.440  53.011  0.00  0.00     0.103 C 
ATOM      4  S   UNL d   1      49.845  34.178  51.566  0.00  0.00    -0.067 SA
ATOM      5  N   UNL d   1      48.665  35.872  53.631  0.00  0.00    -0.191 NA
ATOM      6  C   UNL d   1      48.766  34.964  51.622  0.00  0.00     0.019 A 
ATOM      7  C   UNL d   1      49.198  34.456  51.134  0.00  0.00     0.038 A 
ENDROOT
BRANCH   1   8
ATOM      8  N   UNL d   1      50.364  34.376  52.925  0.00  0.00    -0.201 NA
ATOM      9  C   UNL d   1      51.147  34.188  52.740  0.00  0.00     0.280 C 
ATOM     10  O   UNL d   1      51.385  34.131  51.954  0.00  0.00    -0.265 OA
BRANCH   9  11
ATOM     11  C   UNL d   1      51.690  34.056  53.351  0.00  0.00     0.062 C 
BRANCH  11  12
ATOM     12  C   UNL d   1      52.486  33.933  53.179  0.00  0.00     0.005 C 
BRANCH  12  13
ATOM     13  C   UNL d   1      53.020  33.721  53.788  0.00  0.00     0.000 A 
ATOM     14  C   UNL d   1      53.303  32.947  53.843  0.00  0.00     0.000 A 
ATOM     15  C   UNL d   1      53.824  32.742  54.438  0.00  0.00     0.000 A 
ATOM     16  C   UNL d   1      54.068  33.303  54.982  0.00  0.00     0.000 A 
ATOM     17  C   UNL d   1      53.786  34.075  54.930  0.00  0.00     0.000 A 
ATOM     18  C   UNL d   1      53.267  34.283  54.337  0.00  0.00     0.000 A 
ENDBRANCH  12  13
ENDBRANCH  11  12
ENDBRANCH   9  11
ENDBRANCH   1   8
TORSDOF 4
ENDMDL
MODEL 6
REMARK VINA RESULT:      -5.9     10.562     10.936
REMARK  4 active torsions:
REMARK  status: ('A' for Active; 'I' for Inactive)
REMARK    1  A    between atoms: N_3  and  C_1 
REMARK       I    between atoms: C_7  and  N_3 
REMARK    2  A    between atoms: C_11  and  C_7 
REMARK    3  A    between atoms: C_12  and  C_11 
REMARK    4  A    between atoms: C_13  and  C_12 
ROOT
ATOM      1  C   UNL d   1      44.466  30.326  61.241  0.00  0.00     0.124 A 
ATOM      2  C   UNL d   1      44.600  30.192  62.047  0.00  0.00     0.093 A 
ATOM      3  C   UNL d   1      44.773  29.468  62.402  0.00  0.00     0.103 C 
ATOM      4  S   UNL d   1      44.314  31.127  61.141  0.00  0.00    -0.067 SA
ATOM      5  N   UNL d   1      44.940  28.777  62.758  0.00  0.00    -0.191 NA
ATOM      6  C   UNL d   1      44.530  30.923  62.444  0.00  0.00     0.019 A 
ATOM      7  C   UNL d   1      44.353  31.498  61.878  0.00  0.00     0.038 A 
ENDROOT
BRANCH   1   8
ATOM      8  N   UNL d   1      44.481  29.755  60.647  0.00  0.00    -0.201 NA
ATOM      9  C   UNL d   1      44.671  29.974  59.873  0.00  0.00     0.280 C 
ATOM     10  O   UNL d   1      44.844  30.760  59.696  0.00  0.00    -0.265 OA
BRANCH   9  11
ATOM     11  C   UNL d   1      44.686  29.399  59.278  0.00  0.00     0.062 C 
BRANCH  11  12
ATOM     12  C   UNL d   1      45.140  29.516  58.601  0.00  0.00     0.005 C 
BRANCH  12  13
ATOM     13  C   UNL d   1      45.149  28.937  57.996  0.00  0.00     0.000 A 
ATOM     14  C   UNL d   1      45.383  28.162  58.164  0.00  0.00     0.000 A 
ATOM     15  C   UNL d   1      45.390  27.599  57.572  0.00  0.00     0.000 A 
ATOM     16  C   UNL d   1      45.167  27.799  56.810  0.00  0.00     0.000 A 
ATOM     17  C   UNL d   1      44.933  28.571  56.641  0.00  0.00     0.000 A 
ATOM     18  C   UNL d   1      44.924  29.135  57.229  0.00  0.00     0.000 A 
ENDBRANCH  12  13
ENDBRANCH  11  12
ENDBRANCH   9  11
ENDBRANCH   1   8
TORSDOF 4
ENDMDL
MODEL 7
REMARK VINA RESULT:      -5.5      9.609     10.062
REMARK  4 active torsions:
REMARK  status: ('A' for Active; 'I' for Inactive)
REMARK    1  A    between atoms: N_3  and  C_1 
REMARK       I    between atoms: C_7  and  N_3 
REMARK    2  A    between atoms: C_11  and  C_7 
REMARK    3  A    between atoms: C_12  and  C_11 
REMARK    4  A    between atoms: C_13  and  C_12 
ROOT
ATOM      1  C   UNL d   1      44.608  30.272  57.680  0.00  0.00     0.124 A 
ATOM      2  C   UNL d   1      44.627  30.813  57.053  0.00  0.00     0.093 A 
ATOM      3  C   UNL d   1      44.466  30.652  56.260  0.00  0.00     0.103 C 
ATOM      4  S   UNL d   1      44.805  30.677  58.367  0.00  0.00    -0.067 SA
ATOM      5  N   UNL d   1      44.314  30.510  55.493  0.00  0.00    -0.191 NA
ATOM      6  C   UNL d   1      44.839  31.558  57.363  0.00  0.00     0.019 A 
ATOM      7  C   UNL d   1      44.948  31.468  58.178  0.00  0.00     0.038 A 
ENDROOT
BRANCH   1   8
ATOM      8  N   UNL d   1      44.424  29.471  57.622  0.00  0.00    -0.201 NA
ATOM      9  C   UNL d   1      44.770  28.933  58.145  0.00  0.00     0.280 C 
ATOM     10  O   UNL d   1      45.296  29.195  58.722  0.00  0.00    -0.265 OA
BRANCH   9  11
ATOM     11  C   UNL d   1      44.584  28.128  58.085  0.00  0.00     0.062 C 
BRANCH  11  12
ATOM     12  C   UNL d   1      45.174  27.559  58.165  0.00  0.00     0.005 C 
BRANCH  12  13
ATOM     13  C   UNL d   1      44.989  26.748  58.079  0.00  0.00     0.000 A 
ATOM     14  C   UNL d   1      44.911  26.414  57.327  0.00  0.00     0.000 A 
ATOM     15  C   UNL d   1      44.730  25.622  57.246  0.00  0.00     0.000 A 
ATOM     16  C   UNL d   1      44.626  25.154  57.910  0.00  0.00     0.000 A 
ATOM     17  C   UNL d   1      44.703  25.484  58.661  0.00  0.00     0.000 A 
ATOM     18  C   UNL d   1      44.884  26.274  58.745  0.00  0.00     0.000 A 
ENDBRANCH  12  13
ENDBRANCH  11  12
ENDBRANCH   9  11
ENDBRANCH   1   8
TORSDOF 4
ENDMDL
