MODEL 1
REMARK VINA RESULT:      -7.5      0.000      0.000
REMARK  7 active torsions:
REMARK  status: ('A' for Active; 'I' for Inactive)
REMARK    1  A    between atoms: C_2  and  S_1 
REMARK    2  A    between atoms: N_4  and  S_1 
REMARK    3  A    between atoms: C_13  and  N_4 
REMARK    4  A    between atoms: C_14  and  N_4 
REMARK    5  A    between atoms: O_12  and  C_7 
REMARK    6  A    between atoms: C_16  and  C_13 
REMARK    7  A    between atoms: C_17  and  C_14 
ROOT
ATOM      1  S   UNL d   1      53.505  32.503  53.821  0.00  0.00     0.271 S 
ATOM      2  O   UNL d   1      54.115  32.539  53.266  0.00  0.00    -0.200 OA
ATOM      3  O   UNL d   1      52.895  32.467  54.375  0.00  0.00    -0.200 OA
ENDROOT
BRANCH   1   4
ATOM      4  C   UNL d   1      53.298  31.763  53.544  0.00  0.00     0.106 A 
ATOM      5  C   UNL d   1      53.608  31.088  53.899  0.00  0.00     0.038 A 
ATOM      6  C   UNL d   1      53.399  30.341  53.621  0.00  0.00     0.105 A 
ATOM      7  C   UNL d   1      52.880  30.271  52.988  0.00  0.00     0.080 A 
ATOM      8  C   UNL d   1      52.568  30.943  52.632  0.00  0.00     0.014 A 
ATOM      9 CL   UNL d   1      52.670  29.523  52.710  0.00  0.00    -0.080 Cl
ATOM     10  C   UNL d   1      52.777  31.689  52.910  0.00  0.00     0.014 A 
BRANCH   6  11
ATOM     11  O   UNL d   1      53.711  29.669  53.977  0.00  0.00    -0.327 OA
ATOM     12  C   UNL d   1      53.371  29.377  54.670  0.00  0.00     0.181 C 
ENDBRANCH   6  11
ENDBRANCH   1   4
BRANCH   1  13
ATOM     13  N   UNL d   1      53.715  33.251  54.099  0.00  0.00    -0.229 N 
BRANCH  13  14
ATOM     14  C   UNL d   1      53.147  33.844  54.155  0.00  0.00     0.092 C 
BRANCH  14  15
ATOM     15  C   UNL d   1      53.229  34.537  53.716  0.00  0.00     0.020 C 
ATOM     16  C   UNL d   1      52.647  35.118  53.748  0.00  0.00     0.002 C 
ENDBRANCH  14  15
ENDBRANCH  13  14
BRANCH  13  17
ATOM     17  C   UNL d   1      54.492  33.404  54.322  0.00  0.00     0.092 C 
BRANCH  17  18
ATOM     18  C   UNL d   1      54.663  33.632  55.096  0.00  0.00     0.020 C 
ATOM     19  C   UNL d   1      55.439  33.822  55.309  0.00  0.00     0.002 C 
ENDBRANCH  17  18
ENDBRANCH  13  17
ENDBRANCH   1  13
TORSDOF 7
ENDMDL
MODEL 2
REMARK VINA RESULT:      -7.1      1.374      1.950
REMARK  7 active torsions:
REMARK  status: ('A' for Active; 'I' for Inactive)
REMARK    1  A    between atoms: C_2  and  S_1 
REMARK    2  A    between atoms: N_4  and  S_1 
REMARK    3  A    between atoms: C_13  and  N_4 
REMARK    4  A    between atoms: C_14  and  N_4 
REMARK    5  A    between atoms: O_12  and  C_7 
REMARK    6  A    between atoms: C_16  and  C_13 
REMARK    7  A    between atoms: C_17  and  C_14 
ROOT
ATOM      1  S   UNL d   1      52.629  33.025  53.317  0.00  0.00     0.271 S 
ATOM      2  O   UNL d   1      52.462  32.975  54.124  0.00  0.00    -0.200 OA
ATOM      3  O   UNL d   1      52.796  33.076  52.511  0.00  0.00    -0.200 OA
ENDROOT
BRANCH   1   4
ATOM      4  C   UNL d   1      52.988  32.292  53.346  0.00  0.00     0.106 A 
ATOM      5  C   UNL d   1      52.573  31.619  53.117  0.00  0.00     0.038 A 
ATOM      6  C   UNL d   1      52.935  30.880  53.146  0.00  0.00     0.105 A 
ATOM      7  C   UNL d   1      53.713  30.815  53.403  0.00  0.00     0.080 A 
ATOM      8  C   UNL d   1      54.131  31.485  53.632  0.00  0.00     0.014 A 
ATOM      9 CL   UNL d   1      54.076  30.075  53.431  0.00  0.00    -0.080 Cl
ATOM     10  C   UNL d   1      53.768  32.224  53.603  0.00  0.00     0.014 A 
BRANCH   6  11
ATOM     11  O   UNL d   1      52.517  30.210  52.916  0.00  0.00    -0.327 OA
ATOM     12  C   UNL d   1      51.904  29.928  53.390  0.00  0.00     0.181 C 
ENDBRANCH   6  11
ENDBRANCH   1   4
BRANCH   1  13
ATOM     13  N   UNL d   1      52.266  33.766  53.289  0.00  0.00    -0.229 N 
BRANCH  13  14
ATOM     14  C   UNL d   1      51.725  33.937  52.692  0.00  0.00     0.092 C 
BRANCH  14  15
ATOM     15  C   UNL d   1      50.951  34.149  52.884  0.00  0.00     0.020 C 
ATOM     16  C   UNL d   1      50.402  34.292  52.287  0.00  0.00     0.002 C 
ENDBRANCH  14  15
ENDBRANCH  13  14
BRANCH  13  17
ATOM     17  C   UNL d   1      52.443  34.334  53.857  0.00  0.00     0.092 C 
BRANCH  17  18
ATOM     18  C   UNL d   1      52.810  35.039  53.635  0.00  0.00     0.020 C 
ATOM     19  C   UNL d   1      53.039  35.584  54.213  0.00  0.00     0.002 C 
ENDBRANCH  17  18
ENDBRANCH  13  17
ENDBRANCH   1  13
TORSDOF 7
ENDMDL
MODEL 3
REMARK VINA RESULT:      -7.0      1.376      2.267
REMARK  7 active torsions:
REMARK  status: ('A' for Active; 'I' for Inactive)
REMARK    1  A    between atoms: C_2  and  S_1 
REMARK    2  A    between atoms: N_4  and  S_1 
REMARK    3  A    between atoms: C_13  and  N_4 
REMARK    4  A    between atoms: C_14  and  N_4 
REMARK    5  A    between atoms: O_12  and  C_7 
REMARK    6  A    between atoms: C_16  and  C_13 
REMARK    7  A    between atoms: C_17  and  C_14 
ROOT
ATOM      1  S   UNL d   1      52.631  33.035  53.312  0.00  0.00     0.271 S 
ATOM      2  O   UNL d   1      52.447  32.976  54.114  0.00  0.00    -0.200 OA
ATOM      3  O   UNL d   1      52.814  33.095  52.510  0.00  0.00    -0.200 OA
ENDROOT
BRANCH   1   4
ATOM      4  C   UNL d   1      52.989  32.302  53.339  0.00  0.00     0.106 A 
ATOM      5  C   UNL d   1      52.570  31.629  53.117  0.00  0.00     0.038 A 
ATOM      6  C   UNL d   1      52.931  30.889  53.144  0.00  0.00     0.105 A 
ATOM      7  C   UNL d   1      53.711  30.823  53.394  0.00  0.00     0.080 A 
ATOM      8  C   UNL d   1      54.132  31.493  53.618  0.00  0.00     0.014 A 
ATOM      9 CL   UNL d   1      54.073  30.083  53.422  0.00  0.00    -0.080 Cl
ATOM     10  C   UNL d   1      53.771  32.233  53.590  0.00  0.00     0.014 A 
BRANCH   6  11
ATOM     11  O   UNL d   1      52.510  30.220  52.921  0.00  0.00    -0.327 OA
ATOM     12  C   UNL d   1      51.900  29.940  53.401  0.00  0.00     0.181 C 
ENDBRANCH   6  11
ENDBRANCH   1   4
BRANCH   1  13
ATOM     13  N   UNL d   1      52.269  33.776  53.284  0.00  0.00    -0.229 N 
BRANCH  13  14
ATOM     14  C   UNL d   1      52.443  34.341  53.858  0.00  0.00     0.092 C 
BRANCH  14  15
ATOM     15  C   UNL d   1      52.807  35.049  53.643  0.00  0.00     0.020 C 
ATOM     16  C   UNL d   1      53.037  35.588  54.221  0.00  0.00     0.002 C 
ENDBRANCH  14  15
ENDBRANCH  13  14
BRANCH  13  17
ATOM     17  C   UNL d   1      51.734  33.952  52.684  0.00  0.00     0.092 C 
BRANCH  17  18
ATOM     18  C   UNL d   1      50.956  34.154  52.870  0.00  0.00     0.020 C 
ATOM     19  C   UNL d   1      50.414  34.308  52.264  0.00  0.00     0.002 C 
ENDBRANCH  17  18
ENDBRANCH  13  17
ENDBRANCH   1  13
TORSDOF 7
ENDMDL
MODEL 4
REMARK VINA RESULT:      -6.4      1.841      3.612
REMARK  7 active torsions:
REMARK  status: ('A' for Active; 'I' for Inactive)
REMARK    1  A    between atoms: C_2  and  S_1 
REMARK    2  A    between atoms: N_4  and  S_1 
REMARK    3  A    between atoms: C_13  and  N_4 
REMARK    4  A    between atoms: C_14  and  N_4 
REMARK    5  A    between atoms: O_12  and  C_7 
REMARK    6  A    between atoms: C_16  and  C_13 
REMARK    7  A    between atoms: C_17  and  C_14 
ROOT
ATOM      1  S   UNL d   1      53.241  32.579  53.675  0.00  0.00     0.271 S 
ATOM      2  O   UNL d   1      52.982  32.234  54.378  0.00  0.00    -0.200 OA
ATOM      3  O   UNL d   1      53.500  32.924  52.972  0.00  0.00    -0.200 OA
ENDROOT
BRANCH   1   4
ATOM      4  C   UNL d   1      53.814  32.991  54.088  0.00  0.00     0.106 A 
ATOM      5  C   UNL d   1      53.602  33.630  54.561  0.00  0.00     0.038 A 
ATOM      6  C   UNL d   1      54.179  34.045  54.978  0.00  0.00     0.105 A 
ATOM      7  C   UNL d   1      54.967  33.819  54.921  0.00  0.00     0.080 A 
ATOM      8  C   UNL d   1      55.182  33.181  54.449  0.00  0.00     0.014 A 
ATOM      9 CL   UNL d   1      55.545  34.235  55.338  0.00  0.00    -0.080 Cl
ATOM     10  C   UNL d   1      54.605  32.766  54.032  0.00  0.00     0.014 A 
BRANCH   6  11
ATOM     11  O   UNL d   1      53.965  34.683  55.449  0.00  0.00    -0.327 OA
ATOM     12  C   UNL d   1      53.352  35.181  55.211  0.00  0.00     0.181 C 
ENDBRANCH   6  11
ENDBRANCH   1   4
BRANCH   1  13
ATOM     13  N   UNL d   1      52.663  32.164  53.258  0.00  0.00    -0.229 N 
BRANCH  13  14
ATOM     14  C   UNL d   1      52.144  32.567  52.762  0.00  0.00     0.092 C 
BRANCH  14  15
ATOM     15  C   UNL d   1      51.356  32.667  52.983  0.00  0.00     0.020 C 
ATOM     16  C   UNL d   1      50.880  33.207  52.584  0.00  0.00     0.002 C 
ENDBRANCH  14  15
ENDBRANCH  13  14
BRANCH  13  17
ATOM     17  C   UNL d   1      52.605  31.347  53.337  0.00  0.00     0.092 C 
BRANCH  17  18
ATOM     18  C   UNL d   1      52.745  30.858  52.688  0.00  0.00     0.020 C 
ATOM     19  C   UNL d   1      52.740  30.036  52.782  0.00  0.00     0.002 C 
ENDBRANCH  17  18
ENDBRANCH  13  17
ENDBRANCH   1  13
TORSDOF 7
ENDMDL
MODEL 5
REMARK VINA RESULT:      -6.3      2.002      3.605
REMARK  7 active torsions:
REMARK  status: ('A' for Active; 'I' for Inactive)
REMARK    1  A    between atoms: C_2  and  S_1 
REMARK    2  A    between atoms: N_4  and  S_1 
REMARK    3  A    between atoms: C_13  and  N_4 
REMARK    4  A    between atoms: C_14  and  N_4 
REMARK    5  A    between atoms: O_12  and  C_7 
REMARK    6  A    between atoms: C_16  and  C_13 
REMARK    7  A    between atoms: C_17  and  C_14 
ROOT
ATOM      1  S   UNL d   1      52.651  32.584  53.293  0.00  0.00     0.271 S 
ATOM      2  O   UNL d   1      52.601  32.634  54.115  0.00  0.00    -0.200 OA
ATOM      3  O   UNL d   1      52.701  32.533  52.471  0.00  0.00    -0.200 OA
ENDROOT
BRANCH   1   4
ATOM      4  C   UNL d   1      52.044  33.126  53.223  0.00  0.00     0.106 A 
ATOM      5  C   UNL d   1      52.181  33.922  53.383  0.00  0.00     0.038 A 
ATOM      6  C   UNL d   1      51.569  34.469  53.313  0.00  0.00     0.105 A 
ATOM      7  C   UNL d   1      50.822  34.219  53.081  0.00  0.00     0.080 A 
ATOM      8  C   UNL d   1      50.682  33.426  52.920  0.00  0.00     0.014 A 
ATOM      9 CL   UNL d   1      50.209  34.767  53.010  0.00  0.00    -0.080 Cl
ATOM     10  C   UNL d   1      51.294  32.879  52.991  0.00  0.00     0.014 A 
BRANCH   6  11
ATOM     11  O   UNL d   1      51.710  35.263  53.474  0.00  0.00    -0.327 OA
ATOM     12  C   UNL d   1      52.339  35.477  53.963  0.00  0.00     0.181 C 
ENDBRANCH   6  11
ENDBRANCH   1   4
BRANCH   1  13
ATOM     13  N   UNL d   1      53.264  32.036  53.364  0.00  0.00    -0.229 N 
BRANCH  13  14
ATOM     14  C   UNL d   1      53.181  31.281  53.045  0.00  0.00     0.092 C 
BRANCH  14  15
ATOM     15  C   UNL d   1      53.335  30.617  53.509  0.00  0.00     0.020 C 
ATOM     16  C   UNL d   1      53.167  29.864  53.222  0.00  0.00     0.002 C 
ENDBRANCH  14  15
ENDBRANCH  13  14
BRANCH  13  17
ATOM     17  C   UNL d   1      53.958  32.242  53.754  0.00  0.00     0.092 C 
BRANCH  17  18
ATOM     18  C   UNL d   1      54.626  32.458  53.321  0.00  0.00     0.020 C 
ATOM     19  C   UNL d   1      55.255  32.844  53.696  0.00  0.00     0.002 C 
ENDBRANCH  17  18
ENDBRANCH  13  17
ENDBRANCH   1  13
TORSDOF 7
ENDMDL
MODEL 6
REMARK VINA RESULT:      -6.3      2.002      3.654
REMARK  7 active torsions:
REMARK  status: ('A' for Active; 'I' for Inactive)
REMARK    1  A    between atoms: C_2  and  S_1 
REMARK    2  A    between atoms: N_4  and  S_1 
REMARK    3  A    between atoms: C_13  and  N_4 
REMARK    4  A    between atoms: C_14  and  N_4 
REMARK    5  A    between atoms: O_12  and  C_7 
REMARK    6  A    between atoms: C_16  and  C_13 
REMARK    7  A    between atoms: C_17  and  C_14 
ROOT
ATOM      1  S   UNL d   1      52.652  32.583  53.293  0.00  0.00     0.271 S 
ATOM      2  O   UNL d   1      52.599  32.630  54.115  0.00  0.00    -0.200 OA
ATOM      3  O   UNL d   1      52.705  32.535  52.471  0.00  0.00    -0.200 OA
ENDROOT
BRANCH   1   4
ATOM      4  C   UNL d   1      52.046  33.126  53.222  0.00  0.00     0.106 A 
ATOM      5  C   UNL d   1      52.183  33.921  53.384  0.00  0.00     0.038 A 
ATOM      6  C   UNL d   1      51.571  34.469  53.313  0.00  0.00     0.105 A 
ATOM      7  C   UNL d   1      50.824  34.220  53.080  0.00  0.00     0.080 A 
ATOM      8  C   UNL d   1      50.684  33.426  52.918  0.00  0.00     0.014 A 
ATOM      9 CL   UNL d   1      50.212  34.768  53.008  0.00  0.00    -0.080 Cl
ATOM     10  C   UNL d   1      51.295  32.879  52.989  0.00  0.00     0.014 A 
BRANCH   6  11
ATOM     11  O   UNL d   1      51.712  35.262  53.475  0.00  0.00    -0.327 OA
ATOM     12  C   UNL d   1      52.344  35.476  53.960  0.00  0.00     0.181 C 
ENDBRANCH   6  11
ENDBRANCH   1   4
BRANCH   1  13
ATOM     13  N   UNL d   1      53.264  32.034  53.365  0.00  0.00    -0.229 N 
BRANCH  13  14
ATOM     14  C   UNL d   1      53.959  32.241  53.755  0.00  0.00     0.092 C 
BRANCH  14  15
ATOM     15  C   UNL d   1      54.628  32.455  53.322  0.00  0.00     0.020 C 
ATOM     16  C   UNL d   1      55.254  32.840  53.692  0.00  0.00     0.002 C 
ENDBRANCH  14  15
ENDBRANCH  13  14
BRANCH  13  17
ATOM     17  C   UNL d   1      53.181  31.281  53.046  0.00  0.00     0.092 C 
BRANCH  17  18
ATOM     18  C   UNL d   1      53.335  30.616  53.511  0.00  0.00     0.020 C 
ATOM     19  C   UNL d   1      53.165  29.861  53.220  0.00  0.00     0.002 C 
ENDBRANCH  17  18
ENDBRANCH  13  17
ENDBRANCH   1  13
TORSDOF 7
ENDMDL
