MODEL 1
REMARK VINA RESULT:      46.8      0.000      0.000
REMARK  4 active torsions:
REMARK  status: ('A' for Active; 'I' for Inactive)
REMARK    1  A    between atoms: C_11  and  C_1 
REMARK    2  A    between atoms: C_6  and  C_17 
REMARK       I    between atoms: N_10  and  C_6 
REMARK    3  A    between atoms: C_17  and  N_8 
REMARK    4  A    between atoms: C_15  and  N_10 
ROOT
ATOM      1  N   UNL d   1      46.291 -17.854  39.746  0.00  0.00    -0.299 N 
ATOM      2  C   UNL d   1      46.261 -18.491  41.258  0.00  0.00     0.039 A 
ATOM      3  C   UNL d   1      45.905 -18.894  40.632  0.00  0.00     0.022 A 
ATOM      4  C   UNL d   1      46.631 -17.771  41.133  0.00  0.00     0.022 A 
ATOM      5  C   UNL d   1      46.647 -17.451  40.372  0.00  0.00     0.081 A 
ATOM      6  C   UNL d   1      45.920 -18.578  39.882  0.00  0.00     0.081 A 
ENDROOT
BRANCH   1   7
ATOM      7  C   UNL d   1      46.306 -17.533  38.983  0.00  0.00     0.144 C 
BRANCH   7   8
ATOM      8  C   UNL d   1      45.662 -17.092  38.708  0.00  0.00     0.297 C 
ATOM      9  N   UNL d   1      45.743 -16.660  38.028  0.00  0.00    -0.207 NA
ATOM     10  O   UNL d   1      44.957 -17.091  39.115  0.00  0.00    -0.264 OA
BRANCH   9  11
ATOM     11  C   UNL d   1      45.107 -16.216  37.744  0.00  0.00     0.087 A 
ATOM     12  C   UNL d   1      44.474 -16.597  37.404  0.00  0.00     0.045 A 
ATOM     13  C   UNL d   1      43.839 -16.152  37.119  0.00  0.00     0.121 A 
ATOM     14  O   UNL d   1      43.131 -16.365  36.754  0.00  0.00    -0.299 OA
ATOM     15  C   UNL d   1      43.847 -15.336  37.180  0.00  0.00     0.119 A 
ATOM     16  C   UNL d   1      42.705 -15.681  36.590  0.00  0.00     0.304 A 
ATOM     17  O   UNL d   1      43.151 -15.041  36.855  0.00  0.00    -0.300 OA
ATOM     18  C   UNL d   1      44.499 -14.960  37.529  0.00  0.00     0.028 A 
ATOM     19  C   UNL d   1      45.127 -15.405  37.809  0.00  0.00     0.021 A 
ENDBRANCH   9  11
ENDBRANCH   7   8
ENDBRANCH   1   7
BRANCH   2  20
ATOM     20  C   UNL d   1      46.245 -18.812  42.020  0.00  0.00     0.163 A 
ATOM     21  N   UNL d   1      46.395 -18.415  42.719  0.00  0.00    -0.225 NA
ATOM     22  C   UNL d   1      46.319 -18.946  43.342  0.00  0.00     0.101 A 
ATOM     23  C   UNL d   1      46.405 -18.854  44.157  0.00  0.00     0.021 A 
ATOM     24  C   UNL d   1      46.119 -19.683  43.023  0.00  0.00     0.101 A 
ATOM     25  C   UNL d   1      46.292 -19.499  44.654  0.00  0.00     0.002 A 
ATOM     26  C   UNL d   1      46.093 -20.237  44.339  0.00  0.00     0.002 A 
ATOM     27  C   UNL d   1      46.006 -20.330  43.528  0.00  0.00     0.021 A 
ATOM     28  N   UNL d   1      46.073 -19.601  42.205  0.00  0.00    -0.225 NA
ENDBRANCH   2  20
TORSDOF 4
ENDMDL
MODEL 2
REMARK VINA RESULT:      48.4      1.149      1.568
REMARK  4 active torsions:
REMARK  status: ('A' for Active; 'I' for Inactive)
REMARK    1  A    between atoms: C_11  and  C_1 
REMARK    2  A    between atoms: C_6  and  C_17 
REMARK       I    between atoms: N_10  and  C_6 
REMARK    3  A    between atoms: C_17  and  N_8 
REMARK    4  A    between atoms: C_15  and  N_10 
ROOT
ATOM      1  N   UNL d   1      45.308 -18.266  39.885  0.00  0.00    -0.299 N 
ATOM      2  C   UNL d   1      45.730 -18.524  41.449  0.00  0.00     0.039 A 
ATOM      3  C   UNL d   1      45.041 -18.107  41.271  0.00  0.00     0.022 A 
ATOM      4  C   UNL d   1      46.210 -18.812  40.852  0.00  0.00     0.022 A 
ATOM      5  C   UNL d   1      45.998 -18.682  40.064  0.00  0.00     0.081 A 
ATOM      6  C   UNL d   1      44.832 -17.979  40.495  0.00  0.00     0.081 A 
ENDROOT
BRANCH   1   7
ATOM      7  C   UNL d   1      45.096 -18.135  39.096  0.00  0.00     0.144 C 
BRANCH   7   8
ATOM      8  C   UNL d   1      45.321 -17.434  38.718  0.00  0.00     0.297 C 
ATOM      9  N   UNL d   1      44.795 -17.070  38.221  0.00  0.00    -0.207 NA
ATOM     10  O   UNL d   1      46.059 -17.114  38.844  0.00  0.00    -0.264 OA
BRANCH   9  11
ATOM     11  C   UNL d   1      45.009 -16.369  37.838  0.00  0.00     0.087 A 
ATOM     12  C   UNL d   1      45.732 -16.032  37.995  0.00  0.00     0.045 A 
ATOM     13  C   UNL d   1      45.945 -15.332  37.612  0.00  0.00     0.121 A 
ATOM     14  O   UNL d   1      46.621 -14.863  37.648  0.00  0.00    -0.299 OA
ATOM     15  C   UNL d   1      45.431 -14.981  37.080  0.00  0.00     0.119 A 
ATOM     16  C   UNL d   1      46.524 -14.224  37.139  0.00  0.00     0.304 A 
ATOM     17  O   UNL d   1      45.784 -14.298  36.786  0.00  0.00    -0.300 OA
ATOM     18  C   UNL d   1      44.697 -15.335  36.930  0.00  0.00     0.028 A 
ATOM     19  C   UNL d   1      44.489 -16.029  37.311  0.00  0.00     0.021 A 
ENDBRANCH   9  11
ENDBRANCH   7   8
ENDBRANCH   1   7
BRANCH   2  20
ATOM     20  C   UNL d   1      45.943 -18.654  42.238  0.00  0.00     0.163 A 
ATOM     21  N   UNL d   1      46.064 -18.083  42.811  0.00  0.00    -0.225 NA
ATOM     22  C   UNL d   1      46.267 -18.458  43.514  0.00  0.00     0.101 A 
ATOM     23  C   UNL d   1      46.448 -18.162  44.262  0.00  0.00     0.021 A 
ATOM     24  C   UNL d   1      46.271 -19.273  43.374  0.00  0.00     0.101 A 
ATOM     25  C   UNL d   1      46.633 -18.681  44.872  0.00  0.00     0.002 A 
ATOM     26  C   UNL d   1      46.638 -19.497  44.736  0.00  0.00     0.002 A 
ATOM     27  C   UNL d   1      46.458 -19.793  43.991  0.00  0.00     0.021 A 
ATOM     28  N   UNL d   1      46.071 -19.396  42.584  0.00  0.00    -0.225 NA
ENDBRANCH   2  20
TORSDOF 4
ENDMDL
