MODEL 1
REMARK VINA RESULT:      30.1      0.000      0.000
REMARK  5 active torsions:
REMARK  status: ('A' for Active; 'I' for Inactive)
REMARK    1  A    between atoms: C_7  and  C_1 
REMARK    2  A    between atoms: C_6  and  C_3 
REMARK       I    between atoms: N_8  and  C_6 
REMARK    3  A    between atoms: O_14  and  C_7 
REMARK    4  A    between atoms: C_13  and  N_8 
REMARK    5  A    between atoms: C_15  and  O_14 
ROOT
ATOM      1  C   UNL d   1      14.159  12.810  -2.287  0.00  0.00     0.090 A 
ATOM      2  C   UNL d   1      14.691  13.432  -2.419  0.00  0.00     0.138 A 
ATOM      3  C   UNL d   1      15.019  12.850  -1.297  0.00  0.00     0.089 A 
ATOM      4  C   UNL d   1      14.376  12.450  -1.576  0.00  0.00     0.018 A 
ATOM      5  S   UNL d   1      15.201  13.416  -1.783  0.00  0.00    -0.061 SA
ATOM      6  N   UNL d   1      14.674  13.950  -3.085  0.00  0.00    -0.141 N 
ATOM      7  C   UNL d   1      13.962  11.779  -1.239  0.00  0.00     0.001 C 
ENDROOT
BRANCH   3   8
ATOM      8  C   UNL d   1      15.355  12.612  -0.595  0.00  0.00     0.285 C 
ATOM      9  N   UNL d   1      15.474  13.160  -0.014  0.00  0.00    -0.208 NA
ATOM     10  O   UNL d   1      15.565  11.810  -0.496  0.00  0.00    -0.265 OA
BRANCH   9  11
ATOM     11  C   UNL d   1      15.259  13.945  -0.131  0.00  0.00     0.085 A 
ATOM     12  C   UNL d   1      14.527  14.191  -0.066  0.00  0.00     0.019 A 
ATOM     13  C   UNL d   1      14.378  14.966  -0.191  0.00  0.00     0.002 A 
ATOM     14  C   UNL d   1      14.915  15.509  -0.376  0.00  0.00     0.000 A 
ATOM     15  C   UNL d   1      15.716  15.302  -0.459  0.00  0.00     0.002 A 
ATOM     16  C   UNL d   1      15.867  14.481  -0.326  0.00  0.00     0.019 A 
ENDBRANCH   9  11
ENDBRANCH   3   8
BRANCH   1  17
ATOM     17  C   UNL d   1      13.543  12.604  -2.773  0.00  0.00     0.302 C 
ATOM     18  O   UNL d   1      12.769  12.885  -2.622  0.00  0.00    -0.259 OA
BRANCH  17  19
ATOM     19  O   UNL d   1      13.659  12.115  -3.427  0.00  0.00    -0.271 OA
BRANCH  19  20
ATOM     20  C   UNL d   1      13.027  11.985  -3.935  0.00  0.00     0.126 C 
ATOM     21  C   UNL d   1      13.181  11.844  -4.733  0.00  0.00     0.029 C 
ENDBRANCH  19  20
ENDBRANCH  17  19
ENDBRANCH   1  17
TORSDOF 5
ENDMDL
MODEL 2
REMARK VINA RESULT:      32.6      1.538      2.273
REMARK  5 active torsions:
REMARK  status: ('A' for Active; 'I' for Inactive)
REMARK    1  A    between atoms: C_7  and  C_1 
REMARK    2  A    between atoms: C_6  and  C_3 
REMARK       I    between atoms: N_8  and  C_6 
REMARK    3  A    between atoms: O_14  and  C_7 
REMARK    4  A    between atoms: C_13  and  N_8 
REMARK    5  A    between atoms: C_15  and  O_14 
ROOT
ATOM      1  C   UNL d   1      13.596  13.219  -3.376  0.00  0.00     0.090 A 
ATOM      2  C   UNL d   1      13.758  12.581  -2.871  0.00  0.00     0.138 A 
ATOM      3  C   UNL d   1      14.252  13.661  -2.329  0.00  0.00     0.089 A 
ATOM      4  C   UNL d   1      13.912  13.894  -3.023  0.00  0.00     0.018 A 
ATOM      5  S   UNL d   1      14.162  12.904  -2.242  0.00  0.00    -0.061 SA
ATOM      6  N   UNL d   1      13.533  11.780  -3.015  0.00  0.00    -0.141 N 
ATOM      7  C   UNL d   1      13.863  14.677  -3.371  0.00  0.00     0.001 C 
ENDROOT
BRANCH   3   8
ATOM      8  C   UNL d   1      14.611  14.221  -1.861  0.00  0.00     0.285 C 
ATOM      9  N   UNL d   1      14.838  14.016  -1.114  0.00  0.00    -0.208 NA
ATOM     10  O   UNL d   1      14.734  14.988  -2.166  0.00  0.00    -0.265 OA
BRANCH   9  11
ATOM     11  C   UNL d   1      14.709  13.255  -0.831  0.00  0.00     0.085 A 
ATOM     12  C   UNL d   1      15.177  12.662  -1.002  0.00  0.00     0.019 A 
ATOM     13  C   UNL d   1      15.001  11.944  -0.699  0.00  0.00     0.002 A 
ATOM     14  C   UNL d   1      14.387  11.783  -0.237  0.00  0.00     0.000 A 
ATOM     15  C   UNL d   1      13.851  12.381  -0.021  0.00  0.00     0.002 A 
ATOM     16  C   UNL d   1      14.042  13.138  -0.344  0.00  0.00     0.019 A 
ENDBRANCH   9  11
ENDBRANCH   3   8
BRANCH   1  17
ATOM     17  C   UNL d   1      13.199  13.173  -4.082  0.00  0.00     0.302 C 
ATOM     18  O   UNL d   1      12.910  13.865  -4.453  0.00  0.00    -0.259 OA
BRANCH  17  19
ATOM     19  O   UNL d   1      13.068  12.448  -4.454  0.00  0.00    -0.271 OA
BRANCH  19  20
ATOM     20  C   UNL d   1      12.867  12.448  -5.250  0.00  0.00     0.126 C 
ATOM     21  C   UNL d   1      13.059  11.790  -5.708  0.00  0.00     0.029 C 
ENDBRANCH  19  20
ENDBRANCH  17  19
ENDBRANCH   1  17
TORSDOF 5
ENDMDL
