MODEL 1
REMARK VINA RESULT:      -9.2      0.000      0.000
REMARK  3 active torsions:
REMARK  status: ('A' for Active; 'I' for Inactive)
REMARK       I    between atoms: C_3  and  N_1 
REMARK       I    between atoms: C_2  and  N_7 
REMARK    1  A    between atoms: C_4  and  C_2 
REMARK    2  A    between atoms: C_6  and  C_3 
REMARK    3  A    between atoms: N_7  and  C_15 
ROOT
ATOM      1  N   UNL d   1      48.715  35.160  52.221  0.00  0.00    -0.273 N 
ATOM      2  C   UNL d   1      48.354  35.612  52.813  0.00  0.00     0.271 C 
ATOM      3  C   UNL d   1      49.472  34.851  52.331  0.00  0.00     0.067 A 
ATOM      4  C   UNL d   1      49.824  34.403  51.738  0.00  0.00     0.018 A 
ATOM      5  C   UNL d   1      49.868  34.996  53.038  0.00  0.00     0.019 A 
ATOM      6  O   UNL d   1      48.746  35.761  53.527  0.00  0.00    -0.266 OA
ATOM      7  C   UNL d   1      50.986  34.239  52.564  0.00  0.00     0.085 A 
ATOM      8  C   UNL d   1      50.581  34.096  51.852  0.00  0.00     0.021 A 
ATOM      9  C   UNL d   1      48.322  35.011  51.507  0.00  0.00     0.083 A 
ATOM     10  C   UNL d   1      50.621  34.692  53.155  0.00  0.00     0.021 A 
ATOM     11  C   UNL d   1      49.432  34.259  51.036  0.00  0.00     0.003 A 
ATOM     12  C   UNL d   1      48.675  34.564  50.918  0.00  0.00     0.019 A 
ENDROOT
BRANCH   7  13
ATOM     13  N   UNL d   1      51.735  33.933  52.673  0.00  0.00    -0.208 NA
ATOM     14  C   UNL d   1      51.874  33.385  53.271  0.00  0.00     0.282 C 
ATOM     15  O   UNL d   1      51.262  33.141  53.764  0.00  0.00    -0.265 OA
BRANCH  14  16
ATOM     16  C   UNL d   1      52.622  33.077  53.385  0.00  0.00     0.096 A 
ATOM     17  C   UNL d   1      52.793  32.294  53.156  0.00  0.00     0.065 A 
ATOM     18 CL   UNL d   1      52.199  31.835  52.815  0.00  0.00    -0.082 Cl
ATOM     19  C   UNL d   1      53.543  31.983  53.269  0.00  0.00     0.012 A 
ATOM     20  C   UNL d   1      54.132  32.452  53.612  0.00  0.00     0.003 A 
ATOM     21  C   UNL d   1      53.960  33.230  53.839  0.00  0.00     0.030 A 
ATOM     22  C   UNL d   1      53.203  33.540  53.723  0.00  0.00     0.146 A 
ATOM     23  F   UNL d   1      53.045  34.322  53.955  0.00  0.00    -0.204 F 
ENDBRANCH  14  16
ENDBRANCH   7  13
BRANCH   2  24
ATOM     24  C   UNL d   1      47.593  35.917  52.691  0.00  0.00     0.086 A 
ATOM     25  S   UNL d   1      46.886  35.604  53.015  0.00  0.00    -0.082 SA
ATOM     26  C   UNL d   1      46.268  36.081  52.747  0.00  0.00     0.036 A 
ATOM     27  C   UNL d   1      46.571  36.680  52.266  0.00  0.00     0.008 A 
ATOM     28  C   UNL d   1      47.392  36.576  52.233  0.00  0.00     0.012 A 
ENDBRANCH   2  24
TORSDOF 3
ENDMDL
MODEL 2
REMARK VINA RESULT:      -8.6      2.255      5.439
REMARK  3 active torsions:
REMARK  status: ('A' for Active; 'I' for Inactive)
REMARK       I    between atoms: C_3  and  N_1 
REMARK       I    between atoms: C_2  and  N_7 
REMARK    1  A    between atoms: C_4  and  C_2 
REMARK    2  A    between atoms: C_6  and  C_3 
REMARK    3  A    between atoms: N_7  and  C_15 
ROOT
ATOM      1  N   UNL d   1      52.780  33.549  53.671  0.00  0.00    -0.273 N 
ATOM      2  C   UNL d   1      53.276  34.083  54.065  0.00  0.00     0.271 C 
ATOM      3  C   UNL d   1      52.095  33.812  53.294  0.00  0.00     0.067 A 
ATOM      4  C   UNL d   1      51.607  33.276  52.905  0.00  0.00     0.018 A 
ATOM      5  C   UNL d   1      51.907  34.613  53.312  0.00  0.00     0.019 A 
ATOM      6  O   UNL d   1      53.092  34.890  54.087  0.00  0.00    -0.266 OA
ATOM      7  C   UNL d   1      50.728  34.351  52.545  0.00  0.00     0.085 A 
ATOM      8  C   UNL d   1      50.923  33.544  52.530  0.00  0.00     0.021 A 
ATOM      9  C   UNL d   1      52.964  32.742  53.649  0.00  0.00     0.083 A 
ATOM     10  C   UNL d   1      51.227  34.883  52.940  0.00  0.00     0.021 A 
ATOM     11  C   UNL d   1      51.793  32.480  52.887  0.00  0.00     0.003 A 
ATOM     12  C   UNL d   1      52.476  32.210  53.261  0.00  0.00     0.019 A 
ENDROOT
BRANCH   7  13
ATOM     13  N   UNL d   1      50.050  34.612  52.172  0.00  0.00    -0.208 NA
ATOM     14  C   UNL d   1      49.404  34.862  52.617  0.00  0.00     0.282 C 
ATOM     15  O   UNL d   1      49.435  34.853  53.439  0.00  0.00    -0.265 OA
BRANCH  14  16
ATOM     16  C   UNL d   1      48.724  35.124  52.248  0.00  0.00     0.096 A 
ATOM     17  C   UNL d   1      48.232  35.684  52.621  0.00  0.00     0.065 A 
ATOM     18 CL   UNL d   1      48.440  35.970  53.366  0.00  0.00    -0.082 Cl
ATOM     19  C   UNL d   1      47.549  35.947  52.252  0.00  0.00     0.012 A 
ATOM     20  C   UNL d   1      47.349  35.653  51.505  0.00  0.00     0.003 A 
ATOM     21  C   UNL d   1      47.840  35.097  51.136  0.00  0.00     0.030 A 
ATOM     22  C   UNL d   1      48.527  34.834  51.510  0.00  0.00     0.146 A 
ATOM     23  F   UNL d   1      49.009  34.276  51.129  0.00  0.00    -0.204 F 
ENDBRANCH  14  16
ENDBRANCH   7  13
BRANCH   2  24
ATOM     24  C   UNL d   1      53.962  33.806  54.440  0.00  0.00     0.086 A 
ATOM     25  S   UNL d   1      54.033  33.637  55.257  0.00  0.00    -0.082 SA
ATOM     26  C   UNL d   1      54.808  33.378  55.381  0.00  0.00     0.036 A 
ATOM     27  C   UNL d   1      55.217  33.382  54.665  0.00  0.00     0.008 A 
ATOM     28  C   UNL d   1      54.691  33.647  54.082  0.00  0.00     0.012 A 
ENDBRANCH   2  24
TORSDOF 3
ENDMDL
MODEL 3
REMARK VINA RESULT:      -7.7      2.235      5.534
REMARK  3 active torsions:
REMARK  status: ('A' for Active; 'I' for Inactive)
REMARK       I    between atoms: C_3  and  N_1 
REMARK       I    between atoms: C_2  and  N_7 
REMARK    1  A    between atoms: C_4  and  C_2 
REMARK    2  A    between atoms: C_6  and  C_3 
REMARK    3  A    between atoms: N_7  and  C_15 
ROOT
ATOM      1  N   UNL d   1      52.426  33.324  53.275  0.00  0.00    -0.273 N 
ATOM      2  C   UNL d   1      52.532  32.538  53.035  0.00  0.00     0.271 C 
ATOM      3  C   UNL d   1      51.766  33.753  53.026  0.00  0.00     0.067 A 
ATOM      4  C   UNL d   1      51.667  34.532  53.269  0.00  0.00     0.018 A 
ATOM      5  C   UNL d   1      51.212  33.393  52.536  0.00  0.00     0.019 A 
ATOM      6  O   UNL d   1      51.978  32.170  52.541  0.00  0.00    -0.266 OA
ATOM      7  C   UNL d   1      50.443  34.600  52.523  0.00  0.00     0.085 A 
ATOM      8  C   UNL d   1      51.006  34.958  53.018  0.00  0.00     0.021 A 
ATOM      9  C   UNL d   1      52.980  33.691  53.768  0.00  0.00     0.083 A 
ATOM     10  C   UNL d   1      50.553  33.814  52.285  0.00  0.00     0.021 A 
ATOM     11  C   UNL d   1      52.217  34.891  53.756  0.00  0.00     0.003 A 
ATOM     12  C   UNL d   1      52.879  34.468  54.008  0.00  0.00     0.019 A 
ENDROOT
BRANCH   7  13
ATOM     13  N   UNL d   1      49.791  35.025  52.277  0.00  0.00    -0.208 NA
ATOM     14  C   UNL d   1      49.081  34.966  52.690  0.00  0.00     0.282 C 
ATOM     15  O   UNL d   1      49.021  34.481  53.351  0.00  0.00    -0.265 OA
BRANCH  14  16
ATOM     16  C   UNL d   1      48.425  35.389  52.447  0.00  0.00     0.096 A 
ATOM     17  C   UNL d   1      48.109  35.989  52.932  0.00  0.00     0.065 A 
ATOM     18 CL   UNL d   1      48.466  36.151  53.657  0.00  0.00    -0.082 Cl
ATOM     19  C   UNL d   1      47.451  36.414  52.690  0.00  0.00     0.012 A 
ATOM     20  C   UNL d   1      47.101  36.245  51.960  0.00  0.00     0.003 A 
ATOM     21  C   UNL d   1      47.417  35.647  51.480  0.00  0.00     0.030 A 
ATOM     22  C   UNL d   1      48.079  35.222  51.727  0.00  0.00     0.146 A 
ATOM     23  F   UNL d   1      48.385  34.626  51.235  0.00  0.00    -0.204 F 
ENDBRANCH  14  16
ENDBRANCH   7  13
BRANCH   2  24
ATOM     24  C   UNL d   1      53.199  32.117  53.291  0.00  0.00     0.086 A 
ATOM     25  S   UNL d   1      53.184  31.416  53.748  0.00  0.00    -0.082 SA
ATOM     26  C   UNL d   1      53.970  31.193  53.872  0.00  0.00     0.036 A 
ATOM     27  C   UNL d   1      54.470  31.737  53.505  0.00  0.00     0.008 A 
ATOM     28  C   UNL d   1      53.990  32.309  53.145  0.00  0.00     0.012 A 
ENDBRANCH   2  24
TORSDOF 3
ENDMDL
MODEL 4
REMARK VINA RESULT:      -7.1      1.150      1.804
REMARK  3 active torsions:
REMARK  status: ('A' for Active; 'I' for Inactive)
REMARK       I    between atoms: C_3  and  N_1 
REMARK       I    between atoms: C_2  and  N_7 
REMARK    1  A    between atoms: C_4  and  C_2 
REMARK    2  A    between atoms: C_6  and  C_3 
REMARK    3  A    between atoms: N_7  and  C_15 
ROOT
ATOM      1  N   UNL d   1      47.536  35.528  52.290  0.00  0.00    -0.273 N 
ATOM      2  C   UNL d   1      47.060  35.312  51.648  0.00  0.00     0.271 C 
ATOM      3  C   UNL d   1      48.315  35.262  52.342  0.00  0.00     0.067 A 
ATOM      4  C   UNL d   1      48.783  35.480  52.983  0.00  0.00     0.018 A 
ATOM      5  C   UNL d   1      48.618  34.779  51.748  0.00  0.00     0.019 A 
ATOM      6  O   UNL d   1      47.357  34.826  51.047  0.00  0.00    -0.266 OA
ATOM      7  C   UNL d   1      49.872  34.724  52.435  0.00  0.00     0.085 A 
ATOM      8  C   UNL d   1      49.562  35.212  53.031  0.00  0.00     0.021 A 
ATOM      9  C   UNL d   1      47.238  36.014  52.891  0.00  0.00     0.083 A 
ATOM     10  C   UNL d   1      49.392  34.510  51.793  0.00  0.00     0.021 A 
ATOM     11  C   UNL d   1      48.484  35.960  53.573  0.00  0.00     0.003 A 
ATOM     12  C   UNL d   1      47.706  36.230  53.528  0.00  0.00     0.019 A 
ENDROOT
BRANCH   7  13
ATOM     13  N   UNL d   1      50.643  34.461  52.486  0.00  0.00    -0.208 NA
ATOM     14  C   UNL d   1      50.867  33.954  53.095  0.00  0.00     0.282 C 
ATOM     15  O   UNL d   1      50.318  33.709  53.657  0.00  0.00    -0.265 OA
BRANCH  14  16
ATOM     16  C   UNL d   1      51.638  33.689  53.151  0.00  0.00     0.096 A 
ATOM     17  C   UNL d   1      51.810  32.878  53.064  0.00  0.00     0.065 A 
ATOM     18 CL   UNL d   1      51.195  32.348  52.922  0.00  0.00    -0.082 Cl
ATOM     19  C   UNL d   1      52.583  32.610  53.120  0.00  0.00     0.012 A 
ATOM     20  C   UNL d   1      53.193  33.150  53.262  0.00  0.00     0.003 A 
ATOM     21  C   UNL d   1      53.019  33.956  53.348  0.00  0.00     0.030 A 
ATOM     22  C   UNL d   1      52.240  34.222  53.291  0.00  0.00     0.146 A 
ATOM     23  F   UNL d   1      52.080  35.032  53.379  0.00  0.00    -0.204 F 
ENDBRANCH  14  16
ENDBRANCH   7  13
BRANCH   2  24
ATOM     24  C   UNL d   1      46.278  35.586  51.607  0.00  0.00     0.086 A 
ATOM     25  S   UNL d   1      46.022  36.261  51.182  0.00  0.00    -0.082 SA
ATOM     26  C   UNL d   1      45.206  36.321  51.298  0.00  0.00     0.036 A 
ATOM     27  C   UNL d   1      44.951  35.703  51.781  0.00  0.00     0.008 A 
ATOM     28  C   UNL d   1      45.616  35.249  51.972  0.00  0.00     0.012 A 
ENDBRANCH   2  24
TORSDOF 3
ENDMDL
