MODEL 1
REMARK VINA RESULT:      -9.0      0.000      0.000
REMARK  4 active torsions:
REMARK  status: ('A' for Active; 'I' for Inactive)
REMARK    1  A    between atoms: C_7  and  C_5 
REMARK    2  A    between atoms: C_8  and  C_7 
REMARK    3  A    between atoms: C_10  and  C_8 
REMARK    4  A    between atoms: O_18  and  C_11 
ROOT
ATOM      1  C   UNL d   1      53.126  34.740  54.437  0.00  0.00     0.303 A 
ATOM      2  N   UNL d   1      52.650  33.586  53.353  0.00  0.00    -0.222 NA
ATOM      3  O   UNL d   1      52.496  34.889  53.924  0.00  0.00    -0.255 OA
ATOM      4  C   UNL d   1      53.518  34.012  54.407  0.00  0.00     0.081 A 
ATOM      5  C   UNL d   1      52.259  34.316  53.385  0.00  0.00     0.186 A 
ATOM      6  C   UNL d   1      53.282  33.439  53.869  0.00  0.00     0.089 A 
ATOM      7  O   UNL d   1      53.365  35.318  54.980  0.00  0.00    -0.259 OA
ATOM      8  C   UNL d   1      54.144  33.867  54.918  0.00  0.00     0.007 A 
ATOM      9  C   UNL d   1      53.667  32.714  53.834  0.00  0.00     0.019 A 
ATOM     10  C   UNL d   1      54.535  33.140  54.888  0.00  0.00     0.000 A 
ATOM     11  C   UNL d   1      54.298  32.567  54.350  0.00  0.00     0.002 A 
ENDROOT
BRANCH   5  12
ATOM     12  C   UNL d   1      51.614  34.459  52.855  0.00  0.00     0.045 C 
BRANCH  12  13
ATOM     13  C   UNL d   1      50.869  34.157  53.034  0.00  0.00     0.004 C 
BRANCH  13  14
ATOM     14  C   UNL d   1      50.209  34.388  52.596  0.00  0.00     0.000 A 
ATOM     15  C   UNL d   1      50.110  34.122  51.826  0.00  0.00     0.002 A 
ATOM     16  C   UNL d   1      49.450  34.353  51.388  0.00  0.00     0.024 A 
ATOM     17  C   UNL d   1      48.885  34.855  51.729  0.00  0.00     0.094 A 
ATOM     18  C   UNL d   1      48.985  35.122  52.503  0.00  0.00     0.024 A 
ATOM     19  C   UNL d   1      49.644  34.890  52.937  0.00  0.00     0.002 A 
BRANCH  17  20
ATOM     20  O   UNL d   1      48.216  35.086  51.279  0.00  0.00    -0.328 OA
ATOM     21  C   UNL d   1      47.614  35.530  51.620  0.00  0.00     0.181 C 
ENDBRANCH  17  20
ENDBRANCH  13  14
ENDBRANCH  12  13
ENDBRANCH   5  12
TORSDOF 4
ENDMDL
MODEL 2
REMARK VINA RESULT:      -8.4      1.270      5.264
REMARK  4 active torsions:
REMARK  status: ('A' for Active; 'I' for Inactive)
REMARK    1  A    between atoms: C_7  and  C_5 
REMARK    2  A    between atoms: C_8  and  C_7 
REMARK    3  A    between atoms: C_10  and  C_8 
REMARK    4  A    between atoms: O_18  and  C_11 
ROOT
ATOM      1  C   UNL d   1      48.703  34.724  51.447  0.00  0.00     0.303 A 
ATOM      2  N   UNL d   1      49.214  35.154  52.959  0.00  0.00    -0.222 NA
ATOM      3  O   UNL d   1      49.388  34.387  51.764  0.00  0.00    -0.255 OA
ATOM      4  C   UNL d   1      48.274  35.277  51.887  0.00  0.00     0.081 A 
ATOM      5  C   UNL d   1      49.641  34.601  52.515  0.00  0.00     0.186 A 
ATOM      6  C   UNL d   1      48.527  35.491  52.638  0.00  0.00     0.089 A 
ATOM      7  O   UNL d   1      48.447  34.508  50.689  0.00  0.00    -0.259 OA
ATOM      8  C   UNL d   1      47.595  35.609  51.569  0.00  0.00     0.007 A 
ATOM      9  C   UNL d   1      48.105  36.040  53.081  0.00  0.00     0.019 A 
ATOM     10  C   UNL d   1      47.166  36.162  52.009  0.00  0.00     0.000 A 
ATOM     11  C   UNL d   1      47.420  36.376  52.760  0.00  0.00     0.002 A 
ENDROOT
BRANCH   5  12
ATOM     12  C   UNL d   1      50.342  34.261  52.850  0.00  0.00     0.045 C 
BRANCH  12  13
ATOM     13  C   UNL d   1      51.060  34.343  52.453  0.00  0.00     0.004 C 
BRANCH  13  14
ATOM     14  C   UNL d   1      51.760  34.073  52.797  0.00  0.00     0.000 A 
ATOM     15  C   UNL d   1      52.281  34.604  53.143  0.00  0.00     0.002 A 
ATOM     16  C   UNL d   1      52.981  34.335  53.487  0.00  0.00     0.024 A 
ATOM     17  C   UNL d   1      53.157  33.525  53.483  0.00  0.00     0.094 A 
ATOM     18  C   UNL d   1      52.631  32.992  53.135  0.00  0.00     0.024 A 
ATOM     19  C   UNL d   1      51.936  33.263  52.793  0.00  0.00     0.002 A 
BRANCH  17  20
ATOM     20  O   UNL d   1      53.870  33.257  53.834  0.00  0.00    -0.328 OA
ATOM     21  C   UNL d   1      53.861  32.880  54.565  0.00  0.00     0.181 C 
ENDBRANCH  17  20
ENDBRANCH  13  14
ENDBRANCH  12  13
ENDBRANCH   5  12
TORSDOF 4
ENDMDL
MODEL 3
REMARK VINA RESULT:      -8.3      1.589      2.076
REMARK  4 active torsions:
REMARK  status: ('A' for Active; 'I' for Inactive)
REMARK    1  A    between atoms: C_7  and  C_5 
REMARK    2  A    between atoms: C_8  and  C_7 
REMARK    3  A    between atoms: C_10  and  C_8 
REMARK    4  A    between atoms: O_18  and  C_11 
ROOT
ATOM      1  C   UNL d   1      53.555  32.307  53.790  0.00  0.00     0.303 A 
ATOM      2  N   UNL d   1      52.384  31.907  52.694  0.00  0.00    -0.222 NA
ATOM      3  O   UNL d   1      53.101  32.899  53.434  0.00  0.00    -0.255 OA
ATOM      4  C   UNL d   1      53.422  31.514  53.597  0.00  0.00     0.081 A 
ATOM      5  C   UNL d   1      52.520  32.700  52.889  0.00  0.00     0.186 A 
ATOM      6  C   UNL d   1      52.841  31.315  53.053  0.00  0.00     0.089 A 
ATOM      7  O   UNL d   1      54.142  32.508  54.340  0.00  0.00    -0.259 OA
ATOM      8  C   UNL d   1      53.874  30.929  53.953  0.00  0.00     0.007 A 
ATOM      9  C   UNL d   1      52.704  30.529  52.857  0.00  0.00     0.019 A 
ATOM     10  C   UNL d   1      53.741  30.137  53.760  0.00  0.00     0.000 A 
ATOM     11  C   UNL d   1      53.160  29.938  53.216  0.00  0.00     0.002 A 
ENDROOT
BRANCH   5  12
ATOM     12  C   UNL d   1      52.049  33.299  52.518  0.00  0.00     0.045 C 
BRANCH  12  13
ATOM     13  C   UNL d   1      51.566  33.779  52.983  0.00  0.00     0.004 C 
BRANCH  13  14
ATOM     14  C   UNL d   1      50.871  34.096  52.672  0.00  0.00     0.000 A 
ATOM     15  C   UNL d   1      50.289  34.387  53.173  0.00  0.00     0.002 A 
ATOM     16  C   UNL d   1      49.594  34.704  52.863  0.00  0.00     0.024 A 
ATOM     17  C   UNL d   1      49.482  34.727  52.042  0.00  0.00     0.094 A 
ATOM     18  C   UNL d   1      50.068  34.434  51.539  0.00  0.00     0.024 A 
ATOM     19  C   UNL d   1      50.759  34.119  51.851  0.00  0.00     0.002 A 
BRANCH  17  20
ATOM     20  O   UNL d   1      48.773  35.050  51.732  0.00  0.00    -0.328 OA
ATOM     21  C   UNL d   1      48.468  34.783  51.017  0.00  0.00     0.181 C 
ENDBRANCH  17  20
ENDBRANCH  13  14
ENDBRANCH  12  13
ENDBRANCH   5  12
TORSDOF 4
ENDMDL
MODEL 4
REMARK VINA RESULT:      -8.2      2.478      4.725
REMARK  4 active torsions:
REMARK  status: ('A' for Active; 'I' for Inactive)
REMARK    1  A    between atoms: C_7  and  C_5 
REMARK    2  A    between atoms: C_8  and  C_7 
REMARK    3  A    between atoms: C_10  and  C_8 
REMARK    4  A    between atoms: O_18  and  C_11 
ROOT
ATOM      1  C   UNL d   1      52.132  34.144  52.738  0.00  0.00     0.303 A 
ATOM      2  N   UNL d   1      52.721  33.127  53.901  0.00  0.00    -0.222 NA
ATOM      3  O   UNL d   1      52.042  33.327  52.658  0.00  0.00    -0.255 OA
ATOM      4  C   UNL d   1      52.517  34.453  53.402  0.00  0.00     0.081 A 
ATOM      5  C   UNL d   1      52.335  32.822  53.235  0.00  0.00     0.186 A 
ATOM      6  C   UNL d   1      52.810  33.948  53.979  0.00  0.00     0.089 A 
ATOM      7  O   UNL d   1      51.837  34.654  52.155  0.00  0.00    -0.259 OA
ATOM      8  C   UNL d   1      52.605  35.265  53.479  0.00  0.00     0.007 A 
ATOM      9  C   UNL d   1      53.194  34.248  54.642  0.00  0.00     0.019 A 
ATOM     10  C   UNL d   1      52.990  35.573  54.142  0.00  0.00     0.000 A 
ATOM     11  C   UNL d   1      53.282  35.068  54.719  0.00  0.00     0.002 A 
ENDROOT
BRANCH   5  12
ATOM     12  C   UNL d   1      52.248  31.982  53.162  0.00  0.00     0.045 C 
BRANCH  12  13
ATOM     13  C   UNL d   1      52.899  31.526  52.945  0.00  0.00     0.004 C 
BRANCH  13  14
ATOM     14  C   UNL d   1      53.002  30.770  53.260  0.00  0.00     0.000 A 
ATOM     15  C   UNL d   1      52.395  30.218  53.217  0.00  0.00     0.002 A 
ATOM     16  C   UNL d   1      52.498  29.463  53.532  0.00  0.00     0.024 A 
ATOM     17  C   UNL d   1      53.217  29.261  53.892  0.00  0.00     0.094 A 
ATOM     18  C   UNL d   1      53.826  29.816  53.934  0.00  0.00     0.024 A 
ATOM     19  C   UNL d   1      53.721  30.568  53.620  0.00  0.00     0.002 A 
BRANCH  17  20
ATOM     20  O   UNL d   1      53.316  28.491  54.210  0.00  0.00    -0.328 OA
ATOM     21  C   UNL d   1      53.454  28.383  55.013  0.00  0.00     0.181 C 
ENDBRANCH  17  20
ENDBRANCH  13  14
ENDBRANCH  12  13
ENDBRANCH   5  12
TORSDOF 4
ENDMDL
MODEL 5
REMARK VINA RESULT:      -7.6      1.482      5.035
REMARK  4 active torsions:
REMARK  status: ('A' for Active; 'I' for Inactive)
REMARK    1  A    between atoms: C_7  and  C_5 
REMARK    2  A    between atoms: C_8  and  C_7 
REMARK    3  A    between atoms: C_10  and  C_8 
REMARK    4  A    between atoms: O_18  and  C_11 
ROOT
ATOM      1  C   UNL d   1      49.149  35.267  52.847  0.00  0.00     0.303 A 
ATOM      2  N   UNL d   1      49.873  34.330  51.694  0.00  0.00    -0.222 NA
ATOM      3  O   UNL d   1      49.892  34.935  52.990  0.00  0.00    -0.255 OA
ATOM      4  C   UNL d   1      48.768  35.129  52.126  0.00  0.00     0.081 A 
ATOM      5  C   UNL d   1      50.252  34.470  52.417  0.00  0.00     0.186 A 
ATOM      6  C   UNL d   1      49.127  34.664  51.554  0.00  0.00     0.089 A 
ATOM      7  O   UNL d   1      48.786  35.737  53.426  0.00  0.00    -0.259 OA
ATOM      8  C   UNL d   1      48.030  35.459  51.988  0.00  0.00     0.007 A 
ATOM      9  C   UNL d   1      48.754  34.522  50.835  0.00  0.00     0.019 A 
ATOM     10  C   UNL d   1      47.649  35.322  51.268  0.00  0.00     0.000 A 
ATOM     11  C   UNL d   1      48.009  34.856  50.695  0.00  0.00     0.002 A 
ENDROOT
BRANCH   5  12
ATOM     12  C   UNL d   1      51.014  34.125  52.553  0.00  0.00     0.045 C 
BRANCH  12  13
ATOM     13  C   UNL d   1      51.127  33.642  53.211  0.00  0.00     0.004 C 
BRANCH  13  14
ATOM     14  C   UNL d   1      51.865  33.303  53.357  0.00  0.00     0.000 A 
ATOM     15  C   UNL d   1      52.115  32.653  52.923  0.00  0.00     0.002 A 
ATOM     16  C   UNL d   1      52.853  32.314  53.069  0.00  0.00     0.024 A 
ATOM     17  C   UNL d   1      53.343  32.632  53.658  0.00  0.00     0.094 A 
ATOM     18  C   UNL d   1      53.090  33.286  54.094  0.00  0.00     0.024 A 
ATOM     19  C   UNL d   1      52.355  33.621  53.946  0.00  0.00     0.002 A 
BRANCH  17  20
ATOM     20  O   UNL d   1      54.092  32.283  53.802  0.00  0.00    -0.328 OA
ATOM     21  C   UNL d   1      54.784  32.706  53.670  0.00  0.00     0.181 C 
ENDBRANCH  17  20
ENDBRANCH  13  14
ENDBRANCH  12  13
ENDBRANCH   5  12
TORSDOF 4
ENDMDL
MODEL 6
REMARK VINA RESULT:      -7.5      2.760      4.248
REMARK  4 active torsions:
REMARK  status: ('A' for Active; 'I' for Inactive)
REMARK    1  A    between atoms: C_7  and  C_5 
REMARK    2  A    between atoms: C_8  and  C_7 
REMARK    3  A    between atoms: C_10  and  C_8 
REMARK    4  A    between atoms: O_18  and  C_11 
ROOT
ATOM      1  C   UNL d   1      53.010  30.485  52.806  0.00  0.00     0.303 A 
ATOM      2  N   UNL d   1      53.470  31.122  54.260  0.00  0.00    -0.222 NA
ATOM      3  O   UNL d   1      53.129  31.299  52.883  0.00  0.00    -0.255 OA
ATOM      4  C   UNL d   1      53.122  29.989  53.458  0.00  0.00     0.081 A 
ATOM      5  C   UNL d   1      53.358  31.616  53.605  0.00  0.00     0.186 A 
ATOM      6  C   UNL d   1      53.350  30.306  54.181  0.00  0.00     0.089 A 
ATOM      7  O   UNL d   1      52.779  30.166  52.077  0.00  0.00    -0.259 OA
ATOM      8  C   UNL d   1      53.003  29.182  53.379  0.00  0.00     0.007 A 
ATOM      9  C   UNL d   1      53.463  29.818  54.833  0.00  0.00     0.019 A 
ATOM     10  C   UNL d   1      53.115  28.687  54.031  0.00  0.00     0.000 A 
ATOM     11  C   UNL d   1      53.343  29.003  54.753  0.00  0.00     0.002 A 
ENDROOT
BRANCH   5  12
ATOM     12  C   UNL d   1      53.482  32.449  53.694  0.00  0.00     0.045 C 
BRANCH  12  13
ATOM     13  C   UNL d   1      52.832  32.955  53.716  0.00  0.00     0.004 C 
BRANCH  13  14
ATOM     14  C   UNL d   1      52.931  33.755  53.892  0.00  0.00     0.000 A 
ATOM     15  C   UNL d   1      53.263  33.983  54.607  0.00  0.00     0.002 A 
ATOM     16  C   UNL d   1      53.362  34.783  54.784  0.00  0.00     0.024 A 
ATOM     17  C   UNL d   1      53.126  35.358  54.235  0.00  0.00     0.094 A 
ATOM     18  C   UNL d   1      52.793  35.127  53.516  0.00  0.00     0.024 A 
ATOM     19  C   UNL d   1      52.695  34.330  53.343  0.00  0.00     0.002 A 
BRANCH  17  20
ATOM     20  O   UNL d   1      53.229  36.169  54.420  0.00  0.00    -0.328 OA
ATOM     21  C   UNL d   1      52.812  36.515  55.038  0.00  0.00     0.181 C 
ENDBRANCH  17  20
ENDBRANCH  13  14
ENDBRANCH  12  13
ENDBRANCH   5  12
TORSDOF 4
ENDMDL
MODEL 7
REMARK VINA RESULT:      -7.2      1.548      2.413
REMARK  4 active torsions:
REMARK  status: ('A' for Active; 'I' for Inactive)
REMARK    1  A    between atoms: C_7  and  C_5 
REMARK    2  A    between atoms: C_8  and  C_7 
REMARK    3  A    between atoms: C_10  and  C_8 
REMARK    4  A    between atoms: O_18  and  C_11 
ROOT
ATOM      1  C   UNL d   1      51.081  33.181  53.242  0.00  0.00     0.303 A 
ATOM      2  N   UNL d   1      51.103  34.805  52.937  0.00  0.00    -0.222 NA
ATOM      3  O   UNL d   1      50.396  33.563  52.983  0.00  0.00    -0.255 OA
ATOM      4  C   UNL d   1      51.778  33.612  53.349  0.00  0.00     0.081 A 
ATOM      5  C   UNL d   1      50.407  34.370  52.832  0.00  0.00     0.186 A 
ATOM      6  C   UNL d   1      51.789  34.419  53.198  0.00  0.00     0.089 A 
ATOM      7  O   UNL d   1      51.070  32.366  53.394  0.00  0.00    -0.259 OA
ATOM      8  C   UNL d   1      52.457  33.230  53.606  0.00  0.00     0.007 A 
ATOM      9  C   UNL d   1      52.479  34.855  53.302  0.00  0.00     0.019 A 
ATOM     10  C   UNL d   1      53.153  33.662  53.713  0.00  0.00     0.000 A 
ATOM     11  C   UNL d   1      53.164  34.468  53.562  0.00  0.00     0.002 A 
ENDROOT
BRANCH   5  12
ATOM     12  C   UNL d   1      49.710  34.771  52.565  0.00  0.00     0.045 C 
BRANCH  12  13
ATOM     13  C   UNL d   1      49.241  35.173  53.112  0.00  0.00     0.004 C 
BRANCH  13  14
ATOM     14  C   UNL d   1      48.548  35.549  52.870  0.00  0.00     0.000 A 
ATOM     15  C   UNL d   1      48.152  36.055  53.381  0.00  0.00     0.002 A 
ATOM     16  C   UNL d   1      47.458  36.430  53.139  0.00  0.00     0.024 A 
ATOM     17  C   UNL d   1      47.160  36.295  52.378  0.00  0.00     0.094 A 
ATOM     18  C   UNL d   1      47.559  35.786  51.865  0.00  0.00     0.024 A 
ATOM     19  C   UNL d   1      48.250  35.414  52.108  0.00  0.00     0.002 A 
BRANCH  17  20
ATOM     20  O   UNL d   1      46.455  36.680  52.138  0.00  0.00    -0.328 OA
ATOM     21  C   UNL d   1      45.791  36.244  51.927  0.00  0.00     0.181 C 
ENDBRANCH  17  20
ENDBRANCH  13  14
ENDBRANCH  12  13
ENDBRANCH   5  12
TORSDOF 4
ENDMDL
MODEL 8
REMARK VINA RESULT:      -6.1     10.478     11.091
REMARK  4 active torsions:
REMARK  status: ('A' for Active; 'I' for Inactive)
REMARK    1  A    between atoms: C_7  and  C_5 
REMARK    2  A    between atoms: C_8  and  C_7 
REMARK    3  A    between atoms: C_10  and  C_8 
REMARK    4  A    between atoms: O_18  and  C_11 
ROOT
ATOM      1  C   UNL d   1      44.557  30.782  60.431  0.00  0.00     0.303 A 
ATOM      2  N   UNL d   1      44.481  29.143  60.630  0.00  0.00    -0.222 NA
ATOM      3  O   UNL d   1      44.555  30.284  59.772  0.00  0.00    -0.255 OA
ATOM      4  C   UNL d   1      44.520  30.458  61.192  0.00  0.00     0.081 A 
ATOM      5  C   UNL d   1      44.518  29.470  59.870  0.00  0.00     0.186 A 
ATOM      6  C   UNL d   1      44.482  29.644  61.290  0.00  0.00     0.089 A 
ATOM      7  O   UNL d   1      44.595  31.604  60.332  0.00  0.00    -0.259 OA
ATOM      8  C   UNL d   1      44.521  30.955  61.844  0.00  0.00     0.007 A 
ATOM      9  C   UNL d   1      44.445  29.315  62.043  0.00  0.00     0.019 A 
ATOM     10  C   UNL d   1      44.484  30.631  62.604  0.00  0.00     0.000 A 
ATOM     11  C   UNL d   1      44.446  29.817  62.702  0.00  0.00     0.002 A 
ENDROOT
BRANCH   5  12
ATOM     12  C   UNL d   1      44.516  28.952  59.200  0.00  0.00     0.045 C 
BRANCH  12  13
ATOM     13  C   UNL d   1      45.199  28.877  58.745  0.00  0.00     0.004 C 
BRANCH  13  14
ATOM     14  C   UNL d   1      45.241  28.312  58.145  0.00  0.00     0.000 A 
ATOM     15  C   UNL d   1      45.040  28.511  57.375  0.00  0.00     0.002 A 
ATOM     16  C   UNL d   1      45.082  27.946  56.775  0.00  0.00     0.024 A 
ATOM     17  C   UNL d   1      45.329  27.175  56.952  0.00  0.00     0.094 A 
ATOM     18  C   UNL d   1      45.531  26.976  57.727  0.00  0.00     0.024 A 
ATOM     19  C   UNL d   1      45.488  27.541  58.322  0.00  0.00     0.002 A 
BRANCH  17  20
ATOM     20  O   UNL d   1      45.369  26.605  56.338  0.00  0.00    -0.328 OA
ATOM     21  C   UNL d   1      44.839  25.977  56.313  0.00  0.00     0.181 C 
ENDBRANCH  17  20
ENDBRANCH  13  14
ENDBRANCH  12  13
ENDBRANCH   5  12
TORSDOF 4
ENDMDL
