MODEL 1
REMARK VINA RESULT:      -0.4      0.000      0.000
REMARK  4 active torsions:
REMARK  status: ('A' for Active; 'I' for Inactive)
REMARK    1  A    between atoms: N_14  and  C_2 
REMARK       I    between atoms: C_9  and  N_11 
REMARK    2  A    between atoms: C_13  and  C_9 
REMARK    3  A    between atoms: C_10  and  C_17 
REMARK       I    between atoms: N_12  and  C_10 
REMARK    4  A    between atoms: C_30  and  N_14 
ROOT
ATOM      1  C   UNL d   1      57.603  -0.167  31.669  0.00  0.00     0.057 A 
ATOM      2  C   UNL d   1      58.213   0.314  31.354  0.00  0.00     0.006 A 
ATOM      3  C   UNL d   1      57.313  -0.805  31.233  0.00  0.00     0.006 A 
ATOM      4  C   UNL d   1      58.227  -0.497  30.172  0.00  0.00     0.084 A 
ATOM      5  C   UNL d   1      58.516   0.140  30.608  0.00  0.00     0.019 A 
ATOM      6  C   UNL d   1      57.623  -0.973  30.483  0.00  0.00     0.019 A 
ENDROOT
BRANCH   1   7
ATOM      7  C   UNL d   1      57.275  -0.019  32.421  0.00  0.00     0.265 C 
ATOM      8  N   UNL d   1      56.454   0.040  32.517  0.00  0.00    -0.270 N 
ATOM      9  C   UNL d   1      55.525   0.086  32.508  0.00  0.00     0.096 A 
ATOM     10  C   UNL d   1      55.725   0.143  32.889  0.00  0.00     0.096 A 
ATOM     11  C   UNL d   1      55.290   0.234  33.282  0.00  0.00     0.077 A 
ATOM     12  N   UNL d   1      54.677   0.360  33.820  0.00  0.00    -0.171 NA
ATOM     13  C   UNL d   1      54.390   0.508  34.582  0.00  0.00     0.267 C 
ATOM     14  C   UNL d   1      55.482   0.289  33.652  0.00  0.00     0.077 A 
ATOM     15  O   UNL d   1      54.908   0.591  35.208  0.00  0.00    -0.271 OA
ATOM     16  O   UNL d   1      57.775   0.071  33.077  0.00  0.00    -0.267 OA
BRANCH  13  17
ATOM     17  C   UNL d   1      53.579   0.571  34.703  0.00  0.00     0.151 A 
ATOM     18  O   UNL d   1      53.009   0.626  34.122  0.00  0.00    -0.301 OA
ATOM     19  C   UNL d   1      52.274   0.679  34.479  0.00  0.00     0.123 A 
ATOM     20  C   UNL d   1      52.392   0.655  35.294  0.00  0.00     0.029 A 
ATOM     21  C   UNL d   1      53.195   0.589  35.433  0.00  0.00     0.031 A 
ENDBRANCH  13  17
ENDBRANCH   1   7
BRANCH   4  22
ATOM     22  N   UNL d   1      58.540  -0.662  29.421  0.00  0.00    -0.221 NA
BRANCH  22  23
ATOM     23  C   UNL d   1      58.942  -1.376  29.286  0.00  0.00     0.194 A 
ATOM     24  S   UNL d   1      58.586  -2.094  29.176  0.00  0.00    -0.046 SA
ATOM     25  C   UNL d   1      59.189  -2.663  29.060  0.00  0.00     0.062 A 
ATOM     26  C   UNL d   1      59.338  -3.461  28.919  0.00  0.00     0.107 A 
ATOM     27  C   UNL d   1      59.913  -2.276  29.101  0.00  0.00     0.102 A 
ATOM     28  S   UNL d   1      60.147  -3.564  28.875  0.00  0.00     0.213 S 
ATOM     29  C   UNL d   1      60.508  -2.837  28.987  0.00  0.00     0.118 A 
ATOM     30  O   UNL d   1      59.901  -4.347  28.750  0.00  0.00    -0.217 OA
ATOM     31  O   UNL d   1      60.939  -3.806  28.808  0.00  0.00    -0.217 OA
ATOM     32  N   UNL d   1      59.764  -1.471  29.243  0.00  0.00    -0.220 NA
ENDBRANCH  22  23
ENDBRANCH   4  22
TORSDOF 4
ENDMDL
