MODEL 1
REMARK VINA RESULT:      -6.5      0.000      0.000
REMARK  6 active torsions:
REMARK  status: ('A' for Active; 'I' for Inactive)
REMARK    1  A    between atoms: C_8  and  C_1 
REMARK    2  A    between atoms: C_7  and  C_2 
REMARK    3  A    between atoms: O_11  and  C_7 
REMARK    4  A    between atoms: O_12  and  C_8 
REMARK    5  A    between atoms: C_16  and  O_11 
REMARK    6  A    between atoms: C_15  and  O_12 
ROOT
ATOM      1  C   UNL d   1     -48.645  12.858  22.746  0.00  0.00     0.081 A 
ATOM      2  C   UNL d   1     -47.259  12.653  23.046  0.00  0.00     0.081 A 
ATOM      3  N   UNL d   1     -48.219  11.644  23.366  0.00  0.00    -0.245 NA
ATOM      4  C   UNL d   1     -47.437  11.911  23.360  0.00  0.00     0.086 A 
ATOM      5  C   UNL d   1     -48.823  12.116  23.060  0.00  0.00     0.086 A 
ATOM      6  C   UNL d   1     -47.865  13.122  22.741  0.00  0.00     0.014 A 
ATOM      7  C   UNL d   1     -49.603  11.834  23.073  0.00  0.00     0.021 C 
ATOM      8  C   UNL d   1     -46.820  11.423  23.675  0.00  0.00     0.021 C 
ENDROOT
BRANCH   1   9
ATOM      9  C   UNL d   1     -49.242  13.345  22.434  0.00  0.00     0.302 C 
ATOM     10  O   UNL d   1     -49.603  13.168  21.714  0.00  0.00    -0.259 OA
BRANCH   9  11
ATOM     11  O   UNL d   1     -49.474  14.017  22.854  0.00  0.00    -0.271 OA
BRANCH  11  12
ATOM     12  C   UNL d   1     -49.877  14.627  22.476  0.00  0.00     0.126 C 
ATOM     13  C   UNL d   1     -50.194  15.172  22.919  0.00  0.00     0.029 C 
ENDBRANCH  11  12
ENDBRANCH   9  11
ENDBRANCH   1   9
BRANCH   2  14
ATOM     14  C   UNL d   1     -46.463  12.915  23.044  0.00  0.00     0.302 C 
ATOM     15  O   UNL d   1     -46.145  13.271  23.698  0.00  0.00    -0.259 OA
BRANCH  14  16
ATOM     16  O   UNL d   1     -45.994  12.804  22.349  0.00  0.00    -0.271 OA
BRANCH  16  17
ATOM     17  C   UNL d   1     -45.355  13.280  22.204  0.00  0.00     0.126 C 
ATOM     18  C   UNL d   1     -44.666  13.027  21.686  0.00  0.00     0.029 C 
ENDBRANCH  16  17
ENDBRANCH  14  16
ENDBRANCH   2  14
TORSDOF 6
ENDMDL
MODEL 2
REMARK VINA RESULT:      -6.4      0.102      3.474
REMARK  6 active torsions:
REMARK  status: ('A' for Active; 'I' for Inactive)
REMARK    1  A    between atoms: C_8  and  C_1 
REMARK    2  A    between atoms: C_7  and  C_2 
REMARK    3  A    between atoms: O_11  and  C_7 
REMARK    4  A    between atoms: O_12  and  C_8 
REMARK    5  A    between atoms: C_16  and  O_11 
REMARK    6  A    between atoms: C_15  and  O_12 
ROOT
ATOM      1  C   UNL d   1     -47.211  12.640  23.074  0.00  0.00     0.081 A 
ATOM      2  C   UNL d   1     -48.598  12.870  22.798  0.00  0.00     0.081 A 
ATOM      3  N   UNL d   1     -48.183  11.650  23.415  0.00  0.00    -0.245 NA
ATOM      4  C   UNL d   1     -48.784  12.132  23.117  0.00  0.00     0.086 A 
ATOM      5  C   UNL d   1     -47.397  11.903  23.394  0.00  0.00     0.086 A 
ATOM      6  C   UNL d   1     -47.812  13.120  22.778  0.00  0.00     0.014 A 
ATOM      7  C   UNL d   1     -46.804  11.408  23.697  0.00  0.00     0.021 C 
ATOM      8  C   UNL d   1     -49.589  11.869  23.141  0.00  0.00     0.021 C 
ENDROOT
BRANCH   1   9
ATOM      9  C   UNL d   1     -46.425  12.909  23.046  0.00  0.00     0.302 C 
ATOM     10  O   UNL d   1     -46.077  13.275  23.698  0.00  0.00    -0.259 OA
BRANCH   9  11
ATOM     11  O   UNL d   1     -45.989  12.808  22.352  0.00  0.00    -0.271 OA
BRANCH  11  12
ATOM     12  C   UNL d   1     -45.384  13.331  22.159  0.00  0.00     0.126 C 
ATOM     13  C   UNL d   1     -44.767  13.043  21.799  0.00  0.00     0.029 C 
ENDBRANCH  11  12
ENDBRANCH   9  11
ENDBRANCH   1   9
BRANCH   2  14
ATOM     14  C   UNL d   1     -49.215  13.352  22.498  0.00  0.00     0.302 C 
ATOM     15  O   UNL d   1     -49.601  13.150  21.816  0.00  0.00    -0.259 OA
BRANCH  14  16
ATOM     16  O   UNL d   1     -49.430  14.054  22.918  0.00  0.00    -0.271 OA
BRANCH  16  17
ATOM     17  C   UNL d   1     -49.945  14.588  22.590  0.00  0.00     0.126 C 
ATOM     18  C   UNL d   1     -50.059  15.417  22.916  0.00  0.00     0.029 C 
ENDBRANCH  16  17
ENDBRANCH  14  16
ENDBRANCH   2  14
TORSDOF 6
ENDMDL
MODEL 3
REMARK VINA RESULT:      -6.2      1.386      3.885
REMARK  6 active torsions:
REMARK  status: ('A' for Active; 'I' for Inactive)
REMARK    1  A    between atoms: C_8  and  C_1 
REMARK    2  A    between atoms: C_7  and  C_2 
REMARK    3  A    between atoms: O_11  and  C_7 
REMARK    4  A    between atoms: O_12  and  C_8 
REMARK    5  A    between atoms: C_16  and  O_11 
REMARK    6  A    between atoms: C_15  and  O_12 
ROOT
ATOM      1  C   UNL d   1     -47.182  13.545  23.163  0.00  0.00     0.081 A 
ATOM      2  C   UNL d   1     -48.536  14.006  23.073  0.00  0.00     0.081 A 
ATOM      3  N   UNL d   1     -47.475  14.783  22.514  0.00  0.00    -0.245 NA
ATOM      4  C   UNL d   1     -48.280  14.679  22.670  0.00  0.00     0.086 A 
ATOM      5  C   UNL d   1     -46.926  14.217  22.760  0.00  0.00     0.086 A 
ATOM      6  C   UNL d   1     -47.985  13.443  23.318  0.00  0.00     0.014 A 
ATOM      7  C   UNL d   1     -46.121  14.335  22.596  0.00  0.00     0.021 C 
ATOM      8  C   UNL d   1     -48.839  15.262  22.416  0.00  0.00     0.021 C 
ENDROOT
BRANCH   1   9
ATOM      9  C   UNL d   1     -46.643  12.966  23.418  0.00  0.00     0.302 C 
ATOM     10  O   UNL d   1     -45.895  13.174  23.697  0.00  0.00    -0.259 OA
BRANCH   9  11
ATOM     11  O   UNL d   1     -46.862  12.170  23.390  0.00  0.00    -0.271 OA
BRANCH  11  12
ATOM     12  C   UNL d   1     -46.367  11.590  23.696  0.00  0.00     0.126 C 
ATOM     13  C   UNL d   1     -46.627  10.864  23.698  0.00  0.00     0.029 C 
ENDBRANCH  11  12
ENDBRANCH   9  11
ENDBRANCH   1   9
BRANCH   2  14
ATOM     14  C   UNL d   1     -49.354  13.910  23.227  0.00  0.00     0.302 C 
ATOM     15  O   UNL d   1     -49.768  14.476  23.631  0.00  0.00    -0.259 OA
BRANCH  14  16
ATOM     16  O   UNL d   1     -49.744  13.210  22.954  0.00  0.00    -0.271 OA
BRANCH  16  17
ATOM     17  C   UNL d   1     -50.473  13.006  23.246  0.00  0.00     0.126 C 
ATOM     18  C   UNL d   1     -50.859  12.213  23.078  0.00  0.00     0.029 C 
ENDBRANCH  16  17
ENDBRANCH  14  16
ENDBRANCH   2  14
TORSDOF 6
ENDMDL
MODEL 4
REMARK VINA RESULT:      -6.1      1.206      2.021
REMARK  6 active torsions:
REMARK  status: ('A' for Active; 'I' for Inactive)
REMARK    1  A    between atoms: C_8  and  C_1 
REMARK    2  A    between atoms: C_7  and  C_2 
REMARK    3  A    between atoms: O_11  and  C_7 
REMARK    4  A    between atoms: O_12  and  C_8 
REMARK    5  A    between atoms: C_16  and  O_11 
REMARK    6  A    between atoms: C_15  and  O_12 
ROOT
ATOM      1  C   UNL d   1     -48.621  13.520  22.509  0.00  0.00     0.081 A 
ATOM      2  C   UNL d   1     -47.230  13.785  22.727  0.00  0.00     0.081 A 
ATOM      3  N   UNL d   1     -48.142  14.866  22.526  0.00  0.00    -0.245 NA
ATOM      4  C   UNL d   1     -47.374  14.595  22.666  0.00  0.00     0.086 A 
ATOM      5  C   UNL d   1     -48.766  14.330  22.448  0.00  0.00     0.086 A 
ATOM      6  C   UNL d   1     -47.855  13.252  22.648  0.00  0.00     0.014 A 
ATOM      7  C   UNL d   1     -49.532  14.617  22.309  0.00  0.00     0.021 C 
ATOM      8  C   UNL d   1     -46.738  15.148  22.745  0.00  0.00     0.021 C 
ENDROOT
BRANCH   1   9
ATOM      9  C   UNL d   1     -49.238  12.968  22.433  0.00  0.00     0.302 C 
ATOM     10  O   UNL d   1     -49.560  12.788  21.695  0.00  0.00    -0.259 OA
BRANCH   9  11
ATOM     11  O   UNL d   1     -49.530  12.594  23.109  0.00  0.00    -0.271 OA
BRANCH  11  12
ATOM     12  C   UNL d   1     -50.021  11.937  23.043  0.00  0.00     0.126 C 
ATOM     13  C   UNL d   1     -50.217  11.573  23.694  0.00  0.00     0.029 C 
ENDBRANCH  11  12
ENDBRANCH   9  11
ENDBRANCH   1   9
BRANCH   2  14
ATOM     14  C   UNL d   1     -46.448  13.520  22.868  0.00  0.00     0.302 C 
ATOM     15  O   UNL d   1     -46.173  13.432  23.624  0.00  0.00    -0.259 OA
BRANCH  14  16
ATOM     16  O   UNL d   1     -45.947  13.344  22.209  0.00  0.00    -0.271 OA
BRANCH  16  17
ATOM     17  C   UNL d   1     -45.291  12.877  22.304  0.00  0.00     0.126 C 
ATOM     18  C   UNL d   1     -44.620  12.853  21.708  0.00  0.00     0.029 C 
ENDBRANCH  16  17
ENDBRANCH  14  16
ENDBRANCH   2  14
TORSDOF 6
ENDMDL
MODEL 5
REMARK VINA RESULT:      -5.9      1.453      2.819
REMARK  6 active torsions:
REMARK  status: ('A' for Active; 'I' for Inactive)
REMARK    1  A    between atoms: C_8  and  C_1 
REMARK    2  A    between atoms: C_7  and  C_2 
REMARK    3  A    between atoms: O_11  and  C_7 
REMARK    4  A    between atoms: O_12  and  C_8 
REMARK    5  A    between atoms: C_16  and  O_11 
REMARK    6  A    between atoms: C_15  and  O_12 
ROOT
ATOM      1  C   UNL d   1     -47.646  13.766  22.964  0.00  0.00     0.081 A 
ATOM      2  C   UNL d   1     -47.969  12.424  23.351  0.00  0.00     0.081 A 
ATOM      3  N   UNL d   1     -46.604  12.841  23.281  0.00  0.00    -0.245 NA
ATOM      4  C   UNL d   1     -47.166  12.254  23.433  0.00  0.00     0.086 A 
ATOM      5  C   UNL d   1     -46.842  13.596  23.046  0.00  0.00     0.086 A 
ATOM      6  C   UNL d   1     -48.204  13.179  23.117  0.00  0.00     0.014 A 
ATOM      7  C   UNL d   1     -46.267  14.175  22.897  0.00  0.00     0.021 C 
ATOM      8  C   UNL d   1     -46.916  11.481  23.673  0.00  0.00     0.021 C 
ENDROOT
BRANCH   1   9
ATOM      9  C   UNL d   1     -47.903  14.521  22.730  0.00  0.00     0.302 C 
ATOM     10  O   UNL d   1     -47.466  14.971  22.194  0.00  0.00    -0.259 OA
BRANCH   9  11
ATOM     11  O   UNL d   1     -48.606  14.821  23.039  0.00  0.00    -0.271 OA
BRANCH  11  12
ATOM     12  C   UNL d   1     -49.026  15.402  22.634  0.00  0.00     0.126 C 
ATOM     13  C   UNL d   1     -49.586  15.768  23.017  0.00  0.00     0.029 C 
ENDBRANCH  11  12
ENDBRANCH   9  11
ENDBRANCH   1   9
BRANCH   2  14
ATOM     14  C   UNL d   1     -48.531  11.823  23.508  0.00  0.00     0.302 C 
ATOM     15  O   UNL d   1     -48.297  11.054  23.602  0.00  0.00    -0.259 OA
BRANCH  14  16
ATOM     16  O   UNL d   1     -49.349  12.030  23.567  0.00  0.00    -0.271 OA
BRANCH  16  17
ATOM     17  C   UNL d   1     -49.909  11.458  23.698  0.00  0.00     0.126 C 
ATOM     18  C   UNL d   1     -50.791  11.631  23.698  0.00  0.00     0.029 C 
ENDBRANCH  16  17
ENDBRANCH  14  16
ENDBRANCH   2  14
TORSDOF 6
ENDMDL
MODEL 6
REMARK VINA RESULT:      -5.2      7.932      9.066
REMARK  6 active torsions:
REMARK  status: ('A' for Active; 'I' for Inactive)
REMARK    1  A    between atoms: C_8  and  C_1 
REMARK    2  A    between atoms: C_7  and  C_2 
REMARK    3  A    between atoms: O_11  and  C_7 
REMARK    4  A    between atoms: O_12  and  C_8 
REMARK    5  A    between atoms: C_16  and  O_11 
REMARK    6  A    between atoms: C_15  and  O_12 
ROOT
ATOM      1  C   UNL d   1     -40.363  14.691  18.834  0.00  0.00     0.081 A 
ATOM      2  C   UNL d   1     -40.428  14.722  20.265  0.00  0.00     0.081 A 
ATOM      3  N   UNL d   1     -40.791  15.877  19.506  0.00  0.00    -0.245 NA
ATOM      4  C   UNL d   1     -40.692  15.503  20.236  0.00  0.00     0.086 A 
ATOM      5  C   UNL d   1     -40.627  15.472  18.805  0.00  0.00     0.086 A 
ATOM      6  C   UNL d   1     -40.265  14.320  19.563  0.00  0.00     0.014 A 
ATOM      7  C   UNL d   1     -40.731  15.860  18.079  0.00  0.00     0.021 C 
ATOM      8  C   UNL d   1     -40.862  15.922  20.952  0.00  0.00     0.021 C 
ENDROOT
BRANCH   1   9
ATOM      9  C   UNL d   1     -40.193  14.270  18.138  0.00  0.00     0.302 C 
ATOM     10  O   UNL d   1     -40.796  14.022  17.632  0.00  0.00    -0.259 OA
BRANCH   9  11
ATOM     11  O   UNL d   1     -39.407  14.098  17.952  0.00  0.00    -0.271 OA
BRANCH  11  12
ATOM     12  C   UNL d   1     -39.226  13.523  17.393  0.00  0.00     0.126 C 
ATOM     13  C   UNL d   1     -38.482  13.364  17.273  0.00  0.00     0.029 C 
ENDBRANCH  11  12
ENDBRANCH   9  11
ENDBRANCH   1   9
BRANCH   2  14
ATOM     14  C   UNL d   1     -40.330  14.351  21.010  0.00  0.00     0.302 C 
ATOM     15  O   UNL d   1     -40.973  14.094  21.429  0.00  0.00    -0.259 OA
BRANCH  14  16
ATOM     16  O   UNL d   1     -39.550  14.249  21.321  0.00  0.00    -0.271 OA
BRANCH  16  17
ATOM     17  C   UNL d   1     -39.417  13.742  21.939  0.00  0.00     0.126 C 
ATOM     18  C   UNL d   1     -38.595  13.565  22.255  0.00  0.00     0.029 C 
ENDBRANCH  16  17
ENDBRANCH  14  16
ENDBRANCH   2  14
TORSDOF 6
ENDMDL
MODEL 7
REMARK VINA RESULT:      -5.2      7.927      9.054
REMARK  6 active torsions:
REMARK  status: ('A' for Active; 'I' for Inactive)
REMARK    1  A    between atoms: C_8  and  C_1 
REMARK    2  A    between atoms: C_7  and  C_2 
REMARK    3  A    between atoms: O_11  and  C_7 
REMARK    4  A    between atoms: O_12  and  C_8 
REMARK    5  A    between atoms: C_16  and  O_11 
REMARK    6  A    between atoms: C_15  and  O_12 
ROOT
ATOM      1  C   UNL d   1     -40.432  14.716  20.272  0.00  0.00     0.081 A 
ATOM      2  C   UNL d   1     -40.360  14.666  18.842  0.00  0.00     0.081 A 
ATOM      3  N   UNL d   1     -40.803  15.857  19.496  0.00  0.00    -0.245 NA
ATOM      4  C   UNL d   1     -40.631  15.444  18.801  0.00  0.00     0.086 A 
ATOM      5  C   UNL d   1     -40.703  15.495  20.231  0.00  0.00     0.086 A 
ATOM      6  C   UNL d   1     -40.262  14.307  19.578  0.00  0.00     0.014 A 
ATOM      7  C   UNL d   1     -40.879  15.921  20.921  0.00  0.00     0.021 C 
ATOM      8  C   UNL d   1     -40.735  15.821  18.049  0.00  0.00     0.021 C 
ENDROOT
BRANCH   1   9
ATOM      9  C   UNL d   1     -40.327  14.337  21.004  0.00  0.00     0.302 C 
ATOM     10  O   UNL d   1     -40.973  14.066  21.440  0.00  0.00    -0.259 OA
BRANCH   9  11
ATOM     11  O   UNL d   1     -39.562  14.230  21.297  0.00  0.00    -0.271 OA
BRANCH  11  12
ATOM     12  C   UNL d   1     -39.426  13.729  21.934  0.00  0.00     0.126 C 
ATOM     13  C   UNL d   1     -38.694  13.615  22.146  0.00  0.00     0.029 C 
ENDBRANCH  11  12
ENDBRANCH   9  11
ENDBRANCH   1   9
BRANCH   2  14
ATOM     14  C   UNL d   1     -40.189  14.256  18.131  0.00  0.00     0.302 C 
ATOM     15  O   UNL d   1     -40.786  14.012  17.642  0.00  0.00    -0.259 OA
BRANCH  14  16
ATOM     16  O   UNL d   1     -39.383  14.099  17.930  0.00  0.00    -0.271 OA
BRANCH  16  17
ATOM     17  C   UNL d   1     -39.198  13.517  17.397  0.00  0.00     0.126 C 
ATOM     18  C   UNL d   1     -38.356  13.345  17.136  0.00  0.00     0.029 C 
ENDBRANCH  16  17
ENDBRANCH  14  16
ENDBRANCH   2  14
TORSDOF 6
ENDMDL
MODEL 8
REMARK VINA RESULT:      -4.7      7.865      9.573
REMARK  6 active torsions:
REMARK  status: ('A' for Active; 'I' for Inactive)
REMARK    1  A    between atoms: C_8  and  C_1 
REMARK    2  A    between atoms: C_7  and  C_2 
REMARK    3  A    between atoms: O_11  and  C_7 
REMARK    4  A    between atoms: O_12  and  C_8 
REMARK    5  A    between atoms: C_16  and  O_11 
REMARK    6  A    between atoms: C_15  and  O_12 
ROOT
ATOM      1  C   UNL d   1     -39.628  14.918  19.240  0.00  0.00     0.081 A 
ATOM      2  C   UNL d   1     -39.777  14.917  17.814  0.00  0.00     0.081 A 
ATOM      3  N   UNL d   1     -39.071  13.857  18.462  0.00  0.00    -0.245 NA
ATOM      4  C   UNL d   1     -39.355  14.210  17.771  0.00  0.00     0.086 A 
ATOM      5  C   UNL d   1     -39.207  14.210  19.196  0.00  0.00     0.086 A 
ATOM      6  C   UNL d   1     -39.911  15.268  18.549  0.00  0.00     0.014 A 
ATOM      7  C   UNL d   1     -38.916  13.845  19.882  0.00  0.00     0.021 C 
ATOM      8  C   UNL d   1     -39.213  13.844  17.020  0.00  0.00     0.021 C 
ENDROOT
BRANCH   1   9
ATOM      9  C   UNL d   1     -39.774  15.286  19.971  0.00  0.00     0.302 C 
ATOM     10  O   UNL d   1     -39.162  15.630  20.403  0.00  0.00    -0.259 OA
BRANCH   9  11
ATOM     11  O   UNL d   1     -40.545  15.306  20.265  0.00  0.00    -0.271 OA
BRANCH  11  12
ATOM     12  C   UNL d   1     -40.748  15.829  20.868  0.00  0.00     0.126 C 
ATOM     13  C   UNL d   1     -41.498  15.921  21.021  0.00  0.00     0.029 C 
ENDBRANCH  11  12
ENDBRANCH   9  11
ENDBRANCH   1   9
BRANCH   2  14
ATOM     14  C   UNL d   1     -40.061  15.267  17.108  0.00  0.00     0.302 C 
ATOM     15  O   UNL d   1     -39.545  15.563  16.558  0.00  0.00    -0.259 OA
BRANCH  14  16
ATOM     16  O   UNL d   1     -40.895  15.308  16.975  0.00  0.00    -0.271 OA
BRANCH  16  17
ATOM     17  C   UNL d   1     -41.205  15.863  16.472  0.00  0.00     0.126 C 
ATOM     18  C   UNL d   1     -42.080  15.906  16.274  0.00  0.00     0.029 C 
ENDBRANCH  16  17
ENDBRANCH  14  16
ENDBRANCH   2  14
TORSDOF 6
ENDMDL
MODEL 9
REMARK VINA RESULT:      -4.7      1.578      2.950
REMARK  6 active torsions:
REMARK  status: ('A' for Active; 'I' for Inactive)
REMARK    1  A    between atoms: C_8  and  C_1 
REMARK    2  A    between atoms: C_7  and  C_2 
REMARK    3  A    between atoms: O_11  and  C_7 
REMARK    4  A    between atoms: O_12  and  C_8 
REMARK    5  A    between atoms: C_16  and  O_11 
REMARK    6  A    between atoms: C_15  and  O_12 
ROOT
ATOM      1  C   UNL d   1     -48.097  12.455  23.187  0.00  0.00     0.081 A 
ATOM      2  C   UNL d   1     -47.889  13.838  22.878  0.00  0.00     0.081 A 
ATOM      3  N   UNL d   1     -46.788  13.019  23.275  0.00  0.00    -0.245 NA
ATOM      4  C   UNL d   1     -47.085  13.754  23.040  0.00  0.00     0.086 A 
ATOM      5  C   UNL d   1     -47.292  12.370  23.349  0.00  0.00     0.086 A 
ATOM      6  C   UNL d   1     -48.391  13.188  22.952  0.00  0.00     0.014 A 
ATOM      7  C   UNL d   1     -46.980  11.639  23.587  0.00  0.00     0.021 C 
ATOM      8  C   UNL d   1     -46.563  14.417  22.965  0.00  0.00     0.021 C 
ENDROOT
BRANCH   1   9
ATOM      9  C   UNL d   1     -48.618  11.811  23.257  0.00  0.00     0.302 C 
ATOM     10  O   UNL d   1     -48.412  11.063  22.977  0.00  0.00    -0.259 OA
BRANCH   9  11
ATOM     11  O   UNL d   1     -49.355  11.926  23.612  0.00  0.00    -0.271 OA
BRANCH  11  12
ATOM     12  C   UNL d   1     -49.993  11.447  23.414  0.00  0.00     0.126 C 
ATOM     13  C   UNL d   1     -50.684  11.638  23.698  0.00  0.00     0.029 C 
ENDBRANCH  11  12
ENDBRANCH   9  11
ENDBRANCH   1   9
BRANCH   2  14
ATOM     14  C   UNL d   1     -48.181  14.587  22.639  0.00  0.00     0.302 C 
ATOM     15  O   UNL d   1     -47.972  14.901  21.923  0.00  0.00    -0.259 OA
BRANCH  14  16
ATOM     16  O   UNL d   1     -48.697  15.012  23.157  0.00  0.00    -0.271 OA
BRANCH  16  17
ATOM     17  C   UNL d   1     -49.228  15.548  22.860  0.00  0.00     0.126 C 
ATOM     18  C   UNL d   1     -49.925  15.857  23.334  0.00  0.00     0.029 C 
ENDBRANCH  16  17
ENDBRANCH  14  16
ENDBRANCH   2  14
TORSDOF 6
ENDMDL
