MODEL 1
REMARK VINA RESULT:      -3.4      0.000      0.000
REMARK  4 active torsions:
REMARK  status: ('A' for Active; 'I' for Inactive)
REMARK    1  A    between atoms: C_2  and  N_1 
REMARK       I    between atoms: C_3  and  N_1 
REMARK    2  A    between atoms: N_4  and  C_2 
REMARK    3  A    between atoms: C_7  and  C_3 
REMARK    4  A    between atoms: C_8  and  N_4 
ROOT
ATOM      1  C   UNL d   1      31.367  16.525 -23.883  0.00  0.00     0.179 C 
ATOM      2  S   UNL d   1      31.717  15.840 -23.578  0.00  0.00    -0.040 SA
ENDROOT
BRANCH   1   3
ATOM      3  N   UNL d   1      31.635  17.270 -23.650  0.00  0.00    -0.299 N 
ATOM      4  C   UNL d   1      32.419  17.459 -23.764  0.00  0.00     0.259 C 
ATOM      5  O   UNL d   1      32.940  16.915 -24.109  0.00  0.00    -0.267 OA
ATOM      6  H   UNL d   1      31.122  17.805 -23.310  0.00  0.00     0.171 HD
BRANCH   4   7
ATOM      7  C   UNL d   1      32.696  18.211 -23.530  0.00  0.00     0.056 A 
ATOM      8  C   UNL d   1      32.823  18.791 -24.090  0.00  0.00     0.005 A 
ATOM      9  C   UNL d   1      33.096  19.536 -23.864  0.00  0.00     0.000 A 
ATOM     10  C   UNL d   1      33.241  19.689 -23.066  0.00  0.00     0.000 A 
ATOM     11  C   UNL d   1      33.115  19.109 -22.506  0.00  0.00     0.000 A 
ATOM     12  C   UNL d   1      32.841  18.364 -22.732  0.00  0.00     0.005 A 
ENDBRANCH   4   7
ENDBRANCH   1   3
BRANCH   1  13
ATOM     13  N   UNL d   1      30.745  16.471 -24.423  0.00  0.00    -0.332 N 
ATOM     14  H   UNL d   1      30.896  16.466 -25.225  0.00  0.00     0.168 HD
BRANCH  13  15
ATOM     15  C   UNL d   1      29.977  16.422 -24.142  0.00  0.00     0.058 A 
ATOM     16  C   UNL d   1      29.740  15.783 -23.672  0.00  0.00     0.018 A 
ATOM     17  C   UNL d   1      28.965  15.753 -23.401  0.00  0.00     0.013 A 
ATOM     18  C   UNL d   1      28.424  16.337 -23.583  0.00  0.00     0.058 A 
ATOM     19  C   UNL d   1      28.661  16.976 -24.054  0.00  0.00     0.013 A 
ATOM     20 CL   UNL d   1      27.655  16.304 -23.313  0.00  0.00    -0.082 Cl
ATOM     21  C   UNL d   1      29.435  17.022 -24.335  0.00  0.00     0.018 A 
ENDBRANCH  13  15
ENDBRANCH   1  13
TORSDOF 4
ENDMDL
MODEL 2
REMARK VINA RESULT:      -2.4      1.752      4.219
REMARK  4 active torsions:
REMARK  status: ('A' for Active; 'I' for Inactive)
REMARK    1  A    between atoms: C_2  and  N_1 
REMARK       I    between atoms: C_3  and  N_1 
REMARK    2  A    between atoms: N_4  and  C_2 
REMARK    3  A    between atoms: C_7  and  C_3 
REMARK    4  A    between atoms: C_8  and  N_4 
ROOT
ATOM      1  C   UNL d   1      32.100  16.824 -23.695  0.00  0.00     0.179 C 
ATOM      2  S   UNL d   1      32.400  16.204 -23.235  0.00  0.00    -0.040 SA
ENDROOT
BRANCH   1   3
ATOM      3  N   UNL d   1      31.289  16.883 -23.838  0.00  0.00    -0.299 N 
ATOM      4  C   UNL d   1      30.873  16.208 -24.024  0.00  0.00     0.259 C 
ATOM      5  O   UNL d   1      31.253  15.474 -24.069  0.00  0.00    -0.267 OA
ATOM      6  H   UNL d   1      30.914  17.606 -23.793  0.00  0.00     0.171 HD
BRANCH   4   7
ATOM      7  C   UNL d   1      30.052  16.261 -24.170  0.00  0.00     0.056 A 
ATOM      8  C   UNL d   1      29.523  16.187 -23.553  0.00  0.00     0.005 A 
ATOM      9  C   UNL d   1      28.711  16.240 -23.691  0.00  0.00     0.000 A 
ATOM     10  C   UNL d   1      28.440  16.367 -24.460  0.00  0.00     0.000 A 
ATOM     11  C   UNL d   1      28.969  16.441 -25.077  0.00  0.00     0.000 A 
ATOM     12  C   UNL d   1      29.781  16.389 -24.939  0.00  0.00     0.005 A 
ENDBRANCH   4   7
ENDBRANCH   1   3
BRANCH   1  13
ATOM     13  N   UNL d   1      32.608  17.389 -24.015  0.00  0.00    -0.332 N 
ATOM     14  H   UNL d   1      32.952  17.268 -24.746  0.00  0.00     0.168 HD
BRANCH  13  15
ATOM     15  C   UNL d   1      32.763  18.073 -23.590  0.00  0.00     0.058 A 
ATOM     16  C   UNL d   1      32.610  18.817 -23.918  0.00  0.00     0.018 A 
ATOM     17  C   UNL d   1      32.772  19.490 -23.476  0.00  0.00     0.013 A 
ATOM     18  C   UNL d   1      33.080  19.442 -22.721  0.00  0.00     0.058 A 
ATOM     19  C   UNL d   1      33.234  18.698 -22.393  0.00  0.00     0.013 A 
ATOM     20 CL   UNL d   1      33.240  20.112 -22.284  0.00  0.00    -0.082 Cl
ATOM     21  C   UNL d   1      33.077  18.012 -22.823  0.00  0.00     0.018 A 
ENDBRANCH  13  15
ENDBRANCH   1  13
TORSDOF 4
ENDMDL
MODEL 3
REMARK VINA RESULT:      -2.4      2.864      4.816
REMARK  4 active torsions:
REMARK  status: ('A' for Active; 'I' for Inactive)
REMARK    1  A    between atoms: C_2  and  N_1 
REMARK       I    between atoms: C_3  and  N_1 
REMARK    2  A    between atoms: N_4  and  C_2 
REMARK    3  A    between atoms: C_7  and  C_3 
REMARK    4  A    between atoms: C_8  and  N_4 
ROOT
ATOM      1  C   UNL d   1      33.028  19.654 -22.529  0.00  0.00     0.179 C 
ATOM      2  S   UNL d   1      33.241  20.145 -23.161  0.00  0.00    -0.040 SA
ENDROOT
BRANCH   1   3
ATOM      3  N   UNL d   1      32.676  18.921 -22.671  0.00  0.00    -0.299 N 
ATOM      4  C   UNL d   1      32.719  18.602 -23.419  0.00  0.00     0.259 C 
ATOM      5  O   UNL d   1      33.108  19.004 -24.029  0.00  0.00    -0.267 OA
ATOM      6  H   UNL d   1      32.292  18.525 -22.069  0.00  0.00     0.171 HD
BRANCH   4   7
ATOM      7  C   UNL d   1      32.364  17.860 -23.568  0.00  0.00     0.056 A 
ATOM      8  C   UNL d   1      32.778  17.173 -23.417  0.00  0.00     0.005 A 
ATOM      9  C   UNL d   1      32.433  16.438 -23.563  0.00  0.00     0.000 A 
ATOM     10  C   UNL d   1      31.665  16.405 -23.862  0.00  0.00     0.000 A 
ATOM     11  C   UNL d   1      31.251  17.092 -24.013  0.00  0.00     0.000 A 
ATOM     12  C   UNL d   1      31.596  17.827 -23.868  0.00  0.00     0.005 A 
ENDBRANCH   4   7
ENDBRANCH   1   3
BRANCH   1  13
ATOM     13  N   UNL d   1      33.165  19.892 -21.751  0.00  0.00    -0.332 N 
ATOM     14  H   UNL d   1      33.590  19.416 -21.243  0.00  0.00     0.168 HD
BRANCH  13  15
ATOM     15  C   UNL d   1      32.869  20.614 -21.497  0.00  0.00     0.058 A 
ATOM     16  C   UNL d   1      32.207  20.646 -21.001  0.00  0.00     0.018 A 
ATOM     17  C   UNL d   1      31.926  21.378 -20.758  0.00  0.00     0.013 A 
ATOM     18  C   UNL d   1      32.283  22.074 -20.993  0.00  0.00     0.058 A 
ATOM     19  C   UNL d   1      32.945  22.041 -21.489  0.00  0.00     0.013 A 
ATOM     20 CL   UNL d   1      32.002  22.800 -20.750  0.00  0.00    -0.082 Cl
ATOM     21  C   UNL d   1      33.241  21.314 -21.743  0.00  0.00     0.018 A 
ENDBRANCH  13  15
ENDBRANCH   1  13
TORSDOF 4
ENDMDL
MODEL 4
REMARK VINA RESULT:      -2.2      3.607      5.308
REMARK  4 active torsions:
REMARK  status: ('A' for Active; 'I' for Inactive)
REMARK    1  A    between atoms: C_2  and  N_1 
REMARK       I    between atoms: C_3  and  N_1 
REMARK    2  A    between atoms: N_4  and  C_2 
REMARK    3  A    between atoms: C_7  and  C_3 
REMARK    4  A    between atoms: C_8  and  N_4 
ROOT
ATOM      1  C   UNL d   1      32.705  20.198 -21.778  0.00  0.00     0.179 C 
ATOM      2  S   UNL d   1      33.239  19.967 -21.188  0.00  0.00    -0.040 SA
ENDROOT
BRANCH   1   3
ATOM      3  N   UNL d   1      32.735  19.852 -22.526  0.00  0.00    -0.299 N 
ATOM      4  C   UNL d   1      32.903  19.057 -22.585  0.00  0.00     0.259 C 
ATOM      5  O   UNL d   1      33.043  18.602 -21.907  0.00  0.00    -0.267 OA
ATOM      6  H   UNL d   1      32.598  20.300 -23.194  0.00  0.00     0.171 HD
BRANCH   4   7
ATOM      7  C   UNL d   1      32.935  18.701 -23.340  0.00  0.00     0.056 A 
ATOM      8  C   UNL d   1      33.179  19.135 -23.986  0.00  0.00     0.005 A 
ATOM      9  C   UNL d   1      33.212  18.789 -24.734  0.00  0.00     0.000 A 
ATOM     10  C   UNL d   1      32.995  17.998 -24.822  0.00  0.00     0.000 A 
ATOM     11  C   UNL d   1      32.751  17.563 -24.176  0.00  0.00     0.000 A 
ATOM     12  C   UNL d   1      32.718  17.909 -23.428  0.00  0.00     0.005 A 
ENDBRANCH   4   7
ENDBRANCH   1   3
BRANCH   1  13
ATOM     13  N   UNL d   1      32.138  20.778 -21.624  0.00  0.00    -0.332 N 
ATOM     14  H   UNL d   1      31.347  20.624 -21.750  0.00  0.00     0.168 HD
BRANCH  13  15
ATOM     15  C   UNL d   1      32.382  21.508 -21.342  0.00  0.00     0.058 A 
ATOM     16  C   UNL d   1      32.823  22.019 -21.822  0.00  0.00     0.018 A 
ATOM     17  C   UNL d   1      33.057  22.746 -21.522  0.00  0.00     0.013 A 
ATOM     18  C   UNL d   1      32.866  22.978 -20.763  0.00  0.00     0.058 A 
ATOM     19  C   UNL d   1      32.424  22.468 -20.283  0.00  0.00     0.013 A 
ATOM     20 CL   UNL d   1      33.099  23.702 -20.467  0.00  0.00    -0.082 Cl
ATOM     21  C   UNL d   1      32.181  21.733 -20.569  0.00  0.00     0.018 A 
ENDBRANCH  13  15
ENDBRANCH   1  13
TORSDOF 4
ENDMDL
MODEL 5
REMARK VINA RESULT:      -1.9      2.755      3.870
REMARK  4 active torsions:
REMARK  status: ('A' for Active; 'I' for Inactive)
REMARK    1  A    between atoms: C_2  and  N_1 
REMARK       I    between atoms: C_3  and  N_1 
REMARK    2  A    between atoms: N_4  and  C_2 
REMARK    3  A    between atoms: C_7  and  C_3 
REMARK    4  A    between atoms: C_8  and  N_4 
ROOT
ATOM      1  C   UNL d   1      33.082  19.579 -22.438  0.00  0.00     0.179 C 
ATOM      2  S   UNL d   1      33.188  19.106 -21.767  0.00  0.00    -0.040 SA
ENDROOT
BRANCH   1   3
ATOM      3  N   UNL d   1      32.824  20.359 -22.363  0.00  0.00    -0.299 N 
ATOM      4  C   UNL d   1      32.901  20.730 -21.641  0.00  0.00     0.259 C 
ATOM      5  O   UNL d   1      33.231  20.334 -20.994  0.00  0.00    -0.267 OA
ATOM      6  H   UNL d   1      32.499  20.749 -23.001  0.00  0.00     0.171 HD
BRANCH   4   7
ATOM      7  C   UNL d   1      32.641  21.520 -21.559  0.00  0.00     0.056 A 
ATOM      8  C   UNL d   1      32.939  22.100 -22.050  0.00  0.00     0.005 A 
ATOM      9  C   UNL d   1      32.687  22.882 -21.973  0.00  0.00     0.000 A 
ATOM     10  C   UNL d   1      32.130  23.071 -21.395  0.00  0.00     0.000 A 
ATOM     11  C   UNL d   1      31.832  22.491 -20.904  0.00  0.00     0.000 A 
ATOM     12  C   UNL d   1      32.084  21.709 -20.980  0.00  0.00     0.005 A 
ENDBRANCH   4   7
ENDBRANCH   1   3
BRANCH   1  13
ATOM     13  N   UNL d   1      33.233  19.275 -23.190  0.00  0.00    -0.332 N 
ATOM     14  H   UNL d   1      33.752  19.654 -23.692  0.00  0.00     0.168 HD
BRANCH  13  15
ATOM     15  C   UNL d   1      32.854  18.586 -23.425  0.00  0.00     0.058 A 
ATOM     16  C   UNL d   1      33.112  17.849 -23.151  0.00  0.00     0.018 A 
ATOM     17  C   UNL d   1      32.719  17.172 -23.398  0.00  0.00     0.013 A 
ATOM     18  C   UNL d   1      32.081  17.207 -23.906  0.00  0.00     0.058 A 
ATOM     19  C   UNL d   1      31.823  17.945 -24.181  0.00  0.00     0.013 A 
ATOM     20 CL   UNL d   1      31.692  16.533 -24.150  0.00  0.00    -0.082 Cl
ATOM     21  C   UNL d   1      32.206  18.636 -23.943  0.00  0.00     0.018 A 
ENDBRANCH  13  15
ENDBRANCH   1  13
TORSDOF 4
ENDMDL
MODEL 6
REMARK VINA RESULT:      -1.9      1.785      2.471
REMARK  4 active torsions:
REMARK  status: ('A' for Active; 'I' for Inactive)
REMARK    1  A    between atoms: C_2  and  N_1 
REMARK       I    between atoms: C_3  and  N_1 
REMARK    2  A    between atoms: N_4  and  C_2 
REMARK    3  A    between atoms: C_7  and  C_3 
REMARK    4  A    between atoms: C_8  and  N_4 
ROOT
ATOM      1  C   UNL d   1      32.596  18.513 -23.368  0.00  0.00     0.179 C 
ATOM      2  S   UNL d   1      33.240  18.019 -23.531  0.00  0.00    -0.040 SA
ENDROOT
BRANCH   1   3
ATOM      3  N   UNL d   1      32.626  19.043 -22.736  0.00  0.00    -0.299 N 
ATOM      4  C   UNL d   1      32.948  19.781 -22.857  0.00  0.00     0.259 C 
ATOM      5  O   UNL d   1      33.241  19.999 -23.601  0.00  0.00    -0.267 OA
ATOM      6  H   UNL d   1      32.338  18.828 -22.004  0.00  0.00     0.171 HD
BRANCH   4   7
ATOM      7  C   UNL d   1      32.982  20.322 -22.221  0.00  0.00     0.056 A 
ATOM      8  C   UNL d   1      32.993  21.124 -22.369  0.00  0.00     0.005 A 
ATOM      9  C   UNL d   1      33.025  21.663 -21.745  0.00  0.00     0.000 A 
ATOM     10  C   UNL d   1      33.047  21.381 -20.969  0.00  0.00     0.000 A 
ATOM     11  C   UNL d   1      33.036  20.579 -20.822  0.00  0.00     0.000 A 
ATOM     12  C   UNL d   1      33.004  20.040 -21.446  0.00  0.00     0.005 A 
ENDBRANCH   4   7
ENDBRANCH   1   3
BRANCH   1  13
ATOM     13  N   UNL d   1      31.917  18.480 -23.835  0.00  0.00    -0.332 N 
ATOM     14  H   UNL d   1      31.648  19.148 -24.220  0.00  0.00     0.168 HD
BRANCH  13  15
ATOM     15  C   UNL d   1      31.516  17.768 -23.907  0.00  0.00     0.058 A 
ATOM     16  C   UNL d   1      31.727  17.118 -23.440  0.00  0.00     0.018 A 
ATOM     17  C   UNL d   1      31.313  16.413 -23.527  0.00  0.00     0.013 A 
ATOM     18  C   UNL d   1      30.700  16.340 -24.062  0.00  0.00     0.058 A 
ATOM     19  C   UNL d   1      30.490  16.990 -24.528  0.00  0.00     0.013 A 
ATOM     20 CL   UNL d   1      30.291  15.639 -24.146  0.00  0.00    -0.082 Cl
ATOM     21  C   UNL d   1      30.894  17.705 -24.454  0.00  0.00     0.018 A 
ENDBRANCH  13  15
ENDBRANCH   1  13
TORSDOF 4
ENDMDL
