MODEL 1
REMARK VINA RESULT:      -5.6      0.000      0.000
REMARK  6 active torsions:
REMARK  status: ('A' for Active; 'I' for Inactive)
REMARK    1  A    between atoms: C_13  and  N_1 
REMARK    2  A    between atoms: S_9  and  C_2 
REMARK    3  A    between atoms: C_10  and  C_7 
REMARK    4  A    between atoms: C_19  and  S_9 
REMARK    5  A    between atoms: O_23  and  C_10 
REMARK    6  A    between atoms: C_14  and  C_19 
ROOT
ATOM      1  N   UNL d   1     -49.410  13.596  23.159  0.00  0.00    -0.254 N 
ATOM      2  C   UNL d   1     -48.825  14.171  23.071  0.00  0.00     0.182 A 
ATOM      3  C   UNL d   1     -50.180  13.818  23.358  0.00  0.00     0.274 A 
ATOM      4  C   UNL d   1     -50.362  14.611  23.468  0.00  0.00     0.104 A 
ATOM      5  N   UNL d   1     -49.011  14.967  23.182  0.00  0.00    -0.222 NA
ATOM      6  C   UNL d   1     -49.777  15.186  23.380  0.00  0.00     0.095 A 
ATOM      7  S   UNL d   1     -51.063  14.993  23.665  0.00  0.00    -0.080 SA
ATOM      8  O   UNL d   1     -50.764  13.243  23.446  0.00  0.00    -0.266 OA
ATOM      9  C   UNL d   1     -50.118  15.922  23.523  0.00  0.00     0.027 A 
ATOM     10  C   UNL d   1     -50.906  15.805  23.698  0.00  0.00     0.037 A 
ENDROOT
BRANCH   2  11
ATOM     11  S   UNL d   1     -48.047  13.953  22.870  0.00  0.00    -0.047 SA
BRANCH  11  12
ATOM     12  C   UNL d   1     -47.455  14.526  22.850  0.00  0.00     0.063 C 
BRANCH  12  13
ATOM     13  C   UNL d   1     -46.676  14.309  22.685  0.00  0.00     0.107 A 
ATOM     14  O   UNL d   1     -46.321  13.572  22.544  0.00  0.00    -0.301 OA
ATOM     15  C   UNL d   1     -45.523  13.699  22.411  0.00  0.00     0.163 A 
ATOM     16  C   UNL d   1     -45.374  14.511  22.467  0.00  0.00     0.032 A 
ATOM     17  C   UNL d   1     -46.088  14.886  22.636  0.00  0.00     0.027 A 
BRANCH  15  18
ATOM     18  C   UNL d   1     -44.955  13.121  22.248  0.00  0.00     0.319 C 
ATOM     19  O   UNL d   1     -45.009  12.371  22.586  0.00  0.00    -0.257 OA
BRANCH  18  20
ATOM     20  O   UNL d   1     -44.330  13.302  21.741  0.00  0.00    -0.294 OA
ATOM     21  C   UNL d   1     -43.832  12.701  21.470  0.00  0.00     0.185 C 
ENDBRANCH  18  20
ENDBRANCH  15  18
ENDBRANCH  12  13
ENDBRANCH  11  12
ENDBRANCH   2  11
BRANCH   1  22
ATOM     22  C   UNL d   1     -49.232  12.807  23.050  0.00  0.00     0.069 A 
ATOM     23  C   UNL d   1     -49.373  12.445  22.322  0.00  0.00     0.018 A 
ATOM     24  C   UNL d   1     -49.191  11.647  22.216  0.00  0.00     0.002 A 
ATOM     25  C   UNL d   1     -48.868  11.211  22.837  0.00  0.00     0.000 A 
ATOM     26  C   UNL d   1     -48.727  11.573  23.565  0.00  0.00     0.002 A 
ATOM     27  C   UNL d   1     -48.681  10.402  22.736  0.00  0.00     0.000 C 
ATOM     28  C   UNL d   1     -48.909  12.370  23.671  0.00  0.00     0.018 A 
ENDBRANCH   1  22
TORSDOF 6
ENDMDL
MODEL 2
REMARK VINA RESULT:      -5.2      1.881      3.326
REMARK  6 active torsions:
REMARK  status: ('A' for Active; 'I' for Inactive)
REMARK    1  A    between atoms: C_13  and  N_1 
REMARK    2  A    between atoms: S_9  and  C_2 
REMARK    3  A    between atoms: C_10  and  C_7 
REMARK    4  A    between atoms: C_19  and  S_9 
REMARK    5  A    between atoms: O_23  and  C_10 
REMARK    6  A    between atoms: C_14  and  C_19 
ROOT
ATOM      1  N   UNL d   1     -47.965  12.778  23.140  0.00  0.00    -0.254 N 
ATOM      2  C   UNL d   1     -47.729  12.033  23.407  0.00  0.00     0.182 A 
ATOM      3  C   UNL d   1     -48.768  12.957  23.074  0.00  0.00     0.274 A 
ATOM      4  C   UNL d   1     -49.331  12.393  23.275  0.00  0.00     0.104 A 
ATOM      5  N   UNL d   1     -48.297  11.469  23.607  0.00  0.00    -0.222 NA
ATOM      6  C   UNL d   1     -49.095  11.649  23.541  0.00  0.00     0.095 A 
ATOM      7  S   UNL d   1     -50.153  12.410  23.267  0.00  0.00    -0.080 SA
ATOM      8  O   UNL d   1     -49.003  13.701  22.808  0.00  0.00    -0.266 OA
ATOM      9  C   UNL d   1     -49.772  11.207  23.698  0.00  0.00     0.027 A 
ATOM     10  C   UNL d   1     -50.421  11.672  23.530  0.00  0.00     0.037 A 
ENDROOT
BRANCH   2  11
ATOM     11  S   UNL d   1     -46.920  11.847  23.475  0.00  0.00    -0.047 SA
BRANCH  11  12
ATOM     12  C   UNL d   1     -46.694  11.086  23.698  0.00  0.00     0.063 C 
BRANCH  12  13
ATOM     13  C   UNL d   1     -45.914  10.839  23.589  0.00  0.00     0.107 A 
ATOM     14  O   UNL d   1     -45.225  11.249  23.378  0.00  0.00    -0.301 OA
ATOM     15  C   UNL d   1     -44.609  10.710  23.355  0.00  0.00     0.163 A 
ATOM     16  C   UNL d   1     -44.907   9.963  23.551  0.00  0.00     0.032 A 
ATOM     17  C   UNL d   1     -45.714  10.046  23.695  0.00  0.00     0.027 A 
BRANCH  15  18
ATOM     18  C   UNL d   1     -43.820  10.873  23.169  0.00  0.00     0.319 C 
ATOM     19  O   UNL d   1     -43.206  10.505  23.578  0.00  0.00    -0.257 OA
BRANCH  18  20
ATOM     20  O   UNL d   1     -43.651  11.412  22.568  0.00  0.00    -0.294 OA
ATOM     21  C   UNL d   1     -42.962  11.866  22.603  0.00  0.00     0.185 C 
ENDBRANCH  18  20
ENDBRANCH  15  18
ENDBRANCH  12  13
ENDBRANCH  11  12
ENDBRANCH   2  11
BRANCH   1  22
ATOM     22  C   UNL d   1     -47.407  13.339  22.940  0.00  0.00     0.069 A 
ATOM     23  C   UNL d   1     -47.082  13.828  23.520  0.00  0.00     0.018 A 
ATOM     24  C   UNL d   1     -46.519  14.394  23.313  0.00  0.00     0.002 A 
ATOM     25  C   UNL d   1     -46.280  14.472  22.528  0.00  0.00     0.000 A 
ATOM     26  C   UNL d   1     -46.605  13.983  21.948  0.00  0.00     0.002 A 
ATOM     27  C   UNL d   1     -45.709  15.044  22.312  0.00  0.00     0.000 C 
ATOM     28  C   UNL d   1     -47.168  13.417  22.154  0.00  0.00     0.018 A 
ENDBRANCH   1  22
TORSDOF 6
ENDMDL
MODEL 3
REMARK VINA RESULT:      -4.3      0.951      1.219
REMARK  6 active torsions:
REMARK  status: ('A' for Active; 'I' for Inactive)
REMARK    1  A    between atoms: C_13  and  N_1 
REMARK    2  A    between atoms: S_9  and  C_2 
REMARK    3  A    between atoms: C_10  and  C_7 
REMARK    4  A    between atoms: C_19  and  S_9 
REMARK    5  A    between atoms: O_23  and  C_10 
REMARK    6  A    between atoms: C_14  and  C_19 
ROOT
ATOM      1  N   UNL d   1     -48.672  13.397  22.983  0.00  0.00    -0.254 N 
ATOM      2  C   UNL d   1     -47.968  13.821  22.912  0.00  0.00     0.182 A 
ATOM      3  C   UNL d   1     -49.390  13.799  23.053  0.00  0.00     0.274 A 
ATOM      4  C   UNL d   1     -49.402  14.619  23.054  0.00  0.00     0.104 A 
ATOM      5  N   UNL d   1     -47.982  14.646  22.913  0.00  0.00    -0.222 NA
ATOM      6  C   UNL d   1     -48.697  15.044  22.983  0.00  0.00     0.095 A 
ATOM      7  S   UNL d   1     -50.017  15.161  23.114  0.00  0.00    -0.080 SA
ATOM      8  O   UNL d   1     -50.094  13.374  23.123  0.00  0.00    -0.266 OA
ATOM      9  C   UNL d   1     -48.880  15.847  23.001  0.00  0.00     0.027 A 
ATOM     10  C   UNL d   1     -49.688  15.920  23.081  0.00  0.00     0.037 A 
ENDROOT
BRANCH   2  11
ATOM     11  S   UNL d   1     -47.241  13.421  22.841  0.00  0.00    -0.047 SA
BRANCH  11  12
ATOM     12  C   UNL d   1     -46.556  13.847  22.668  0.00  0.00     0.063 C 
BRANCH  12  13
ATOM     13  C   UNL d   1     -45.851  13.448  22.510  0.00  0.00     0.107 A 
ATOM     14  O   UNL d   1     -45.517  12.761  22.833  0.00  0.00    -0.301 OA
ATOM     15  C   UNL d   1     -44.801  12.629  22.457  0.00  0.00     0.163 A 
ATOM     16  C   UNL d   1     -44.684  13.230  21.900  0.00  0.00     0.032 A 
ATOM     17  C   UNL d   1     -45.335  13.735  21.935  0.00  0.00     0.027 A 
BRANCH  15  18
ATOM     18  C   UNL d   1     -44.278  12.006  22.602  0.00  0.00     0.319 C 
ATOM     19  O   UNL d   1     -43.650  11.856  22.089  0.00  0.00    -0.257 OA
BRANCH  18  20
ATOM     20  O   UNL d   1     -44.390  11.532  23.267  0.00  0.00    -0.294 OA
ATOM     21  C   UNL d   1     -44.102  10.758  23.275  0.00  0.00     0.185 C 
ENDBRANCH  18  20
ENDBRANCH  15  18
ENDBRANCH  12  13
ENDBRANCH  11  12
ENDBRANCH   2  11
BRANCH   1  22
ATOM     22  C   UNL d   1     -48.663  12.581  22.983  0.00  0.00     0.069 A 
ATOM     23  C   UNL d   1     -48.748  12.163  22.276  0.00  0.00     0.018 A 
ATOM     24  C   UNL d   1     -48.739  11.338  22.281  0.00  0.00     0.002 A 
ATOM     25  C   UNL d   1     -48.644  10.931  22.991  0.00  0.00     0.000 A 
ATOM     26  C   UNL d   1     -48.558  11.348  23.698  0.00  0.00     0.002 A 
ATOM     27  C   UNL d   1     -48.633  10.094  23.003  0.00  0.00     0.000 C 
ATOM     28  C   UNL d   1     -48.568  12.172  23.693  0.00  0.00     0.018 A 
ENDBRANCH   1  22
TORSDOF 6
ENDMDL
MODEL 4
REMARK VINA RESULT:      -3.6      8.405     10.274
REMARK  6 active torsions:
REMARK  status: ('A' for Active; 'I' for Inactive)
REMARK    1  A    between atoms: C_13  and  N_1 
REMARK    2  A    between atoms: S_9  and  C_2 
REMARK    3  A    between atoms: C_10  and  C_7 
REMARK    4  A    between atoms: C_19  and  S_9 
REMARK    5  A    between atoms: O_23  and  C_10 
REMARK    6  A    between atoms: C_14  and  C_19 
ROOT
ATOM      1  N   UNL d   1     -39.555  14.681  18.399  0.00  0.00    -0.254 N 
ATOM      2  C   UNL d   1     -38.846  14.331  18.635  0.00  0.00     0.182 A 
ATOM      3  C   UNL d   1     -39.733  14.747  17.596  0.00  0.00     0.274 A 
ATOM      4  C   UNL d   1     -39.206  14.465  17.034  0.00  0.00     0.104 A 
ATOM      5  N   UNL d   1     -38.317  14.048  18.069  0.00  0.00    -0.222 NA
ATOM      6  C   UNL d   1     -38.497  14.115  17.271  0.00  0.00     0.095 A 
ATOM      7  S   UNL d   1     -39.230  14.453  16.212  0.00  0.00    -0.080 SA
ATOM      8  O   UNL d   1     -40.442  15.097  17.359  0.00  0.00    -0.266 OA
ATOM      9  C   UNL d   1     -38.085  13.888  16.594  0.00  0.00     0.027 A 
ATOM     10  C   UNL d   1     -38.534  14.094  15.945  0.00  0.00     0.037 A 
ENDROOT
BRANCH   2  11
ATOM     11  S   UNL d   1     -38.660  14.262  19.445  0.00  0.00    -0.047 SA
BRANCH  11  12
ATOM     12  C   UNL d   1     -38.228  13.612  19.710  0.00  0.00     0.063 C 
BRANCH  12  13
ATOM     13  C   UNL d   1     -38.202  13.433  20.515  0.00  0.00     0.107 A 
ATOM     14  O   UNL d   1     -38.350  13.890  21.191  0.00  0.00    -0.301 OA
ATOM     15  C   UNL d   1     -38.238  13.413  21.847  0.00  0.00     0.163 A 
ATOM     16  C   UNL d   1     -38.021  12.657  21.586  0.00  0.00     0.032 A 
ATOM     17  C   UNL d   1     -38.000  12.673  20.762  0.00  0.00     0.027 A 
BRANCH  15  18
ATOM     18  C   UNL d   1     -38.324  13.637  22.638  0.00  0.00     0.319 C 
ATOM     19  O   UNL d   1     -38.218  13.088  23.244  0.00  0.00    -0.257 OA
BRANCH  18  20
ATOM     20  O   UNL d   1     -38.517  14.418  22.817  0.00  0.00    -0.294 OA
ATOM     21  C   UNL d   1     -38.338  14.727  23.561  0.00  0.00     0.185 C 
ENDBRANCH  18  20
ENDBRANCH  15  18
ENDBRANCH  12  13
ENDBRANCH  11  12
ENDBRANCH   2  11
BRANCH   1  22
ATOM     22  C   UNL d   1     -40.081  14.963  18.956  0.00  0.00     0.069 A 
ATOM     23  C   UNL d   1     -40.801  14.579  19.079  0.00  0.00     0.018 A 
ATOM     24  C   UNL d   1     -41.330  14.868  19.643  0.00  0.00     0.002 A 
ATOM     25  C   UNL d   1     -41.139  15.538  20.083  0.00  0.00     0.000 A 
ATOM     26  C   UNL d   1     -40.420  15.922  19.959  0.00  0.00     0.002 A 
ATOM     27  C   UNL d   1     -41.671  15.836  20.656  0.00  0.00     0.000 C 
ATOM     28  C   UNL d   1     -39.891  15.634  19.396  0.00  0.00     0.018 A 
ENDBRANCH   1  22
TORSDOF 6
ENDMDL
MODEL 5
REMARK VINA RESULT:      -3.2      5.221      8.868
REMARK  6 active torsions:
REMARK  status: ('A' for Active; 'I' for Inactive)
REMARK    1  A    between atoms: C_13  and  N_1 
REMARK    2  A    between atoms: S_9  and  C_2 
REMARK    3  A    between atoms: C_10  and  C_7 
REMARK    4  A    between atoms: C_19  and  S_9 
REMARK    5  A    between atoms: O_23  and  C_10 
REMARK    6  A    between atoms: C_14  and  C_19 
ROOT
ATOM      1  N   UNL d   1     -39.611  14.751  20.569  0.00  0.00    -0.254 N 
ATOM      2  C   UNL d   1     -40.390  14.629  20.325  0.00  0.00     0.182 A 
ATOM      3  C   UNL d   1     -39.080  15.139  20.071  0.00  0.00     0.274 A 
ATOM      4  C   UNL d   1     -39.327  15.403  19.334  0.00  0.00     0.104 A 
ATOM      5  N   UNL d   1     -40.636  14.895  19.583  0.00  0.00    -0.222 NA
ATOM      6  C   UNL d   1     -40.106  15.281  19.090  0.00  0.00     0.095 A 
ATOM      7  S   UNL d   1     -38.933  15.799  18.730  0.00  0.00    -0.080 SA
ATOM      8  O   UNL d   1     -38.301  15.261  20.315  0.00  0.00    -0.266 OA
ATOM      9  C   UNL d   1     -40.191  15.601  18.336  0.00  0.00     0.027 A 
ATOM     10  C   UNL d   1     -39.473  15.919  18.114  0.00  0.00     0.037 A 
ENDROOT
BRANCH   2  11
ATOM     11  S   UNL d   1     -40.931  14.237  20.823  0.00  0.00    -0.047 SA
BRANCH  11  12
ATOM     12  C   UNL d   1     -41.740  14.309  20.684  0.00  0.00     0.063 C 
BRANCH  12  13
ATOM     13  C   UNL d   1     -42.265  13.756  21.000  0.00  0.00     0.107 A 
ATOM     14  O   UNL d   1     -43.017  13.835  21.339  0.00  0.00    -0.301 OA
ATOM     15  C   UNL d   1     -43.275  13.088  21.556  0.00  0.00     0.163 A 
ATOM     16  C   UNL d   1     -42.687  12.540  21.355  0.00  0.00     0.032 A 
ATOM     17  C   UNL d   1     -42.064  12.956  21.011  0.00  0.00     0.027 A 
BRANCH  15  18
ATOM     18  C   UNL d   1     -43.996  12.902  21.914  0.00  0.00     0.319 C 
ATOM     19  O   UNL d   1     -44.132  12.148  22.219  0.00  0.00    -0.257 OA
BRANCH  18  20
ATOM     20  O   UNL d   1     -44.582  13.480  21.966  0.00  0.00    -0.294 OA
ATOM     21  C   UNL d   1     -45.338  13.279  22.230  0.00  0.00     0.185 C 
ENDBRANCH  18  20
ENDBRANCH  15  18
ENDBRANCH  12  13
ENDBRANCH  11  12
ENDBRANCH   2  11
BRANCH   1  22
ATOM     22  C   UNL d   1     -39.363  14.489  21.301  0.00  0.00     0.069 A 
ATOM     23  C   UNL d   1     -39.027  13.740  21.384  0.00  0.00     0.018 A 
ATOM     24  C   UNL d   1     -38.777  13.480  22.126  0.00  0.00     0.002 A 
ATOM     25  C   UNL d   1     -38.864  13.968  22.785  0.00  0.00     0.000 A 
ATOM     26  C   UNL d   1     -39.200  14.717  22.703  0.00  0.00     0.002 A 
ATOM     27  C   UNL d   1     -38.613  13.710  23.540  0.00  0.00     0.000 C 
ATOM     28  C   UNL d   1     -39.450  14.977  21.961  0.00  0.00     0.018 A 
ENDBRANCH   1  22
TORSDOF 6
ENDMDL
MODEL 6
REMARK VINA RESULT:      -3.0      5.313      8.920
REMARK  6 active torsions:
REMARK  status: ('A' for Active; 'I' for Inactive)
REMARK    1  A    between atoms: C_13  and  N_1 
REMARK    2  A    between atoms: S_9  and  C_2 
REMARK    3  A    between atoms: C_10  and  C_7 
REMARK    4  A    between atoms: C_19  and  S_9 
REMARK    5  A    between atoms: O_23  and  C_10 
REMARK    6  A    between atoms: C_14  and  C_19 
ROOT
ATOM      1  N   UNL d   1     -39.738  15.103  20.136  0.00  0.00    -0.254 N 
ATOM      2  C   UNL d   1     -40.246  14.863  20.740  0.00  0.00     0.182 A 
ATOM      3  C   UNL d   1     -39.019  15.465  20.320  0.00  0.00     0.274 A 
ATOM      4  C   UNL d   1     -38.811  15.584  21.105  0.00  0.00     0.104 A 
ATOM      5  N   UNL d   1     -40.034  14.985  21.528  0.00  0.00    -0.222 NA
ATOM      6  C   UNL d   1     -39.319  15.344  21.710  0.00  0.00     0.095 A 
ATOM      7  S   UNL d   1     -38.147  15.922  21.453  0.00  0.00    -0.080 SA
ATOM      8  O   UNL d   1     -38.512  15.705  19.716  0.00  0.00    -0.266 OA
ATOM      9  C   UNL d   1     -38.967  15.534  22.430  0.00  0.00     0.027 A 
ATOM     10  C   UNL d   1     -38.249  15.888  22.275  0.00  0.00     0.037 A 
ENDROOT
BRANCH   2  11
ATOM     11  S   UNL d   1     -40.973  14.498  20.559  0.00  0.00    -0.047 SA
BRANCH  11  12
ATOM     12  C   UNL d   1     -41.613  14.588  21.071  0.00  0.00     0.063 C 
BRANCH  12  13
ATOM     13  C   UNL d   1     -42.153  13.972  21.168  0.00  0.00     0.107 A 
ATOM     14  O   UNL d   1     -42.887  13.933  21.552  0.00  0.00    -0.301 OA
ATOM     15  C   UNL d   1     -43.175  13.171  21.466  0.00  0.00     0.163 A 
ATOM     16  C   UNL d   1     -42.626  12.731  21.030  0.00  0.00     0.032 A 
ATOM     17  C   UNL d   1     -41.995  13.229  20.847  0.00  0.00     0.027 A 
BRANCH  15  18
ATOM     18  C   UNL d   1     -43.891  12.880  21.761  0.00  0.00     0.319 C 
ATOM     19  O   UNL d   1     -43.953  12.101  22.022  0.00  0.00    -0.257 OA
BRANCH  18  20
ATOM     20  O   UNL d   1     -44.547  13.379  21.792  0.00  0.00    -0.294 OA
ATOM     21  C   UNL d   1     -45.264  13.099  22.089  0.00  0.00     0.185 C 
ENDBRANCH  18  20
ENDBRANCH  15  18
ENDBRANCH  12  13
ENDBRANCH  11  12
ENDBRANCH   2  11
BRANCH   1  22
ATOM     22  C   UNL d   1     -39.943  14.985  19.354  0.00  0.00     0.069 A 
ATOM     23  C   UNL d   1     -39.732  14.287  18.969  0.00  0.00     0.018 A 
ATOM     24  C   UNL d   1     -39.942  14.172  18.179  0.00  0.00     0.002 A 
ATOM     25  C   UNL d   1     -40.361  14.755  17.775  0.00  0.00     0.000 A 
ATOM     26  C   UNL d   1     -40.572  15.453  18.159  0.00  0.00     0.002 A 
ATOM     27  C   UNL d   1     -40.576  14.644  16.974  0.00  0.00     0.000 C 
ATOM     28  C   UNL d   1     -40.363  15.568  18.948  0.00  0.00     0.018 A 
ENDBRANCH   1  22
TORSDOF 6
ENDMDL
