MODEL 1
REMARK VINA RESULT:      60.7      0.000      0.000
REMARK  7 active torsions:
REMARK  status: ('A' for Active; 'I' for Inactive)
REMARK    1  A    between atoms: C_17  and  N_1 
REMARK       I    between atoms: C_4  and  N_7 
REMARK    2  A    between atoms: C_8  and  C_4 
REMARK    3  A    between atoms: N_7  and  C_26 
REMARK    4  A    between atoms: C_9  and  N_7 
REMARK    5  A    between atoms: C_27  and  C_17 
REMARK    6  A    between atoms: C_26  and  C_28 
REMARK    7  A    between atoms: C_28  and  C_27 
ROOT
ATOM      1  C   UNL d   1      14.160  13.898  -2.376  0.00  0.00     0.287 C 
ATOM      2  N   UNL d   1      13.923  14.104  -3.142  0.00  0.00    -0.272 N 
ATOM      3  O   UNL d   1      14.379  14.474  -1.851  0.00  0.00    -0.264 OA
ENDROOT
BRANCH   2   4
ATOM      4  C   UNL d   1      13.913  14.883  -3.361  0.00  0.00     0.083 C 
BRANCH   4   5
ATOM      5  C   UNL d   1      14.579  15.361  -3.229  0.00  0.00     0.021 C 
BRANCH   5   6
ATOM      6  C   UNL d   1      14.587  16.130  -3.494  0.00  0.00     0.021 C 
BRANCH   6   7
ATOM      7  C   UNL d   1      15.035  16.323  -4.159  0.00  0.00     0.086 C 
BRANCH   7   8
ATOM      8  N   UNL d   1      14.793  16.961  -4.647  0.00  0.00    -0.240 N 
ATOM      9  C   UNL d   1      14.232  16.927  -5.203  0.00  0.00     0.267 A 
ATOM     10  C   UNL d   1      14.166  17.667  -5.551  0.00  0.00     0.061 A 
ATOM     11  O   UNL d   1      13.763  16.238  -5.418  0.00  0.00    -0.267 OA
ATOM     12  C   UNL d   1      13.688  17.952  -6.144  0.00  0.00     0.005 A 
ATOM     13  C   UNL d   1      14.724  18.166  -5.174  0.00  0.00     0.061 A 
ATOM     14  C   UNL d   1      13.757  18.746  -6.375  0.00  0.00     0.000 A 
ATOM     15  C   UNL d   1      14.315  19.245  -5.998  0.00  0.00     0.000 A 
ATOM     16  C   UNL d   1      14.792  18.939  -5.398  0.00  0.00     0.005 A 
ATOM     17  C   UNL d   1      15.110  17.712  -4.611  0.00  0.00     0.267 A 
ATOM     18  O   UNL d   1      15.727  17.996  -4.091  0.00  0.00    -0.267 OA
ENDBRANCH   7   8
ENDBRANCH   6   7
ENDBRANCH   5   6
ENDBRANCH   4   5
ENDBRANCH   2   4
BRANCH   2  19
ATOM     19  C   UNL d   1      13.698  13.523  -3.686  0.00  0.00     0.067 A 
ATOM     20  C   UNL d   1      14.165  12.850  -3.803  0.00  0.00     0.018 A 
ATOM     21  C   UNL d   1      13.939  12.269  -4.347  0.00  0.00     0.013 A 
ATOM     22  C   UNL d   1      13.247  12.361  -4.774  0.00  0.00     0.058 A 
ATOM     23  C   UNL d   1      12.784  13.034  -4.655  0.00  0.00     0.013 A 
ATOM     24 CL   UNL d   1      13.025  11.780  -5.316  0.00  0.00    -0.082 Cl
ATOM     25  C   UNL d   1      13.006  13.615  -4.113  0.00  0.00     0.018 A 
ENDBRANCH   2  19
BRANCH   1  26
ATOM     26  C   UNL d   1      14.171  13.110  -2.155  0.00  0.00     0.156 A 
ATOM     27  O   UNL d   1      13.799  12.432  -2.445  0.00  0.00    -0.300 OA
ATOM     28  C   UNL d   1      14.024  11.784  -1.991  0.00  0.00     0.123 A 
ATOM     29  C   UNL d   1      14.520  12.050  -1.436  0.00  0.00     0.029 A 
ATOM     30  C   UNL d   1      14.633  12.876  -1.512  0.00  0.00     0.032 A 
ENDBRANCH   1  26
TORSDOF 7
ENDMDL
