MODEL 1
REMARK VINA RESULT:      -5.5      0.000      0.000
REMARK  6 active torsions:
REMARK  status: ('A' for Active; 'I' for Inactive)
REMARK    1  A    between atoms: C_2  and  N_1 
REMARK    2  A    between atoms: C_6  and  C_2 
REMARK    3  A    between atoms: O_5  and  C_12 
REMARK    4  A    between atoms: C_11  and  O_5 
REMARK    5  A    between atoms: C_12  and  C_9 
REMARK    6  A    between atoms: C_10  and  C_11 
ROOT
ATOM      1  N   UNL d   1     -40.330  15.161  17.704  0.00  0.00    -0.302 N 
ATOM      2  C   UNL d   1     -40.457  14.422  18.053  0.00  0.00     0.080 A 
ATOM      3  C   UNL d   1     -40.313  15.842  18.175  0.00  0.00     0.080 A 
ATOM      4  C   UNL d   1     -40.565  14.359  18.860  0.00  0.00     0.021 A 
ATOM      5  C   UNL d   1     -40.422  15.783  18.991  0.00  0.00     0.021 A 
ATOM      6  C   UNL d   1     -40.549  15.035  19.339  0.00  0.00     0.028 A 
ENDROOT
BRANCH   6   7
ATOM      7  C   UNL d   1     -40.658  14.976  20.154  0.00  0.00     0.123 C 
BRANCH   7   8
ATOM      8  O   UNL d   1     -40.021  14.766  20.645  0.00  0.00    -0.303 OA
BRANCH   8   9
ATOM      9  C   UNL d   1     -40.135  14.654  21.447  0.00  0.00     0.123 C 
BRANCH   9  10
ATOM     10  C   UNL d   1     -39.502  14.462  21.935  0.00  0.00     0.025 A 
ATOM     11  C   UNL d   1     -39.060  15.062  22.280  0.00  0.00     0.002 A 
ATOM     12  C   UNL d   1     -38.426  14.869  22.768  0.00  0.00     0.000 A 
ATOM     13  C   UNL d   1     -38.235  14.078  22.911  0.00  0.00     0.000 A 
ATOM     14  C   UNL d   1     -38.687  13.481  22.559  0.00  0.00     0.000 A 
ATOM     15  C   UNL d   1     -39.320  13.673  22.071  0.00  0.00     0.002 A 
ENDBRANCH   9  10
ENDBRANCH   8   9
ENDBRANCH   7   8
ENDBRANCH   6   7
BRANCH   1  16
ATOM     16  C   UNL d   1     -40.223  15.214  16.896  0.00  0.00     0.080 C 
BRANCH  16  17
ATOM     17  C   UNL d   1     -39.463  15.186  16.574  0.00  0.00     0.018 A 
ATOM     18  C   UNL d   1     -39.063  15.891  16.391  0.00  0.00     0.002 A 
ATOM     19  C   UNL d   1     -38.300  15.861  16.068  0.00  0.00     0.000 A 
ATOM     20  C   UNL d   1     -37.940  15.132  15.930  0.00  0.00     0.000 A 
ATOM     21  C   UNL d   1     -38.338  14.431  16.112  0.00  0.00     0.000 A 
ATOM     22  C   UNL d   1     -39.099  14.455  16.435  0.00  0.00     0.002 A 
ENDBRANCH  16  17
ENDBRANCH   1  16
TORSDOF 6
ENDMDL
MODEL 2
REMARK VINA RESULT:      -5.4      7.953      9.552
REMARK  6 active torsions:
REMARK  status: ('A' for Active; 'I' for Inactive)
REMARK    1  A    between atoms: C_2  and  N_1 
REMARK    2  A    between atoms: C_6  and  C_2 
REMARK    3  A    between atoms: O_5  and  C_12 
REMARK    4  A    between atoms: C_11  and  O_5 
REMARK    5  A    between atoms: C_12  and  C_9 
REMARK    6  A    between atoms: C_10  and  C_11 
ROOT
ATOM      1  N   UNL d   1     -48.056  13.805  22.527  0.00  0.00    -0.302 N 
ATOM      2  C   UNL d   1     -47.952  13.073  22.156  0.00  0.00     0.080 A 
ATOM      3  C   UNL d   1     -47.756  13.928  23.289  0.00  0.00     0.080 A 
ATOM      4  C   UNL d   1     -47.554  12.469  22.538  0.00  0.00     0.021 A 
ATOM      5  C   UNL d   1     -47.354  13.321  23.678  0.00  0.00     0.021 A 
ATOM      6  C   UNL d   1     -47.251  12.584  23.300  0.00  0.00     0.028 A 
ENDROOT
BRANCH   6   7
ATOM      7  C   UNL d   1     -46.849  11.977  23.689  0.00  0.00     0.123 C 
BRANCH   7   8
ATOM      8  O   UNL d   1     -46.134  11.687  23.380  0.00  0.00    -0.303 OA
BRANCH   8   9
ATOM      9  C   UNL d   1     -45.851  10.956  23.610  0.00  0.00     0.123 C 
BRANCH   9  10
ATOM     10  C   UNL d   1     -45.057  10.766  23.508  0.00  0.00     0.025 A 
ATOM     11  C   UNL d   1     -44.794  10.011  23.694  0.00  0.00     0.002 A 
ATOM     12  C   UNL d   1     -44.000   9.821  23.592  0.00  0.00     0.000 A 
ATOM     13  C   UNL d   1     -43.469  10.387  23.305  0.00  0.00     0.000 A 
ATOM     14  C   UNL d   1     -43.744  11.145  23.121  0.00  0.00     0.000 A 
ATOM     15  C   UNL d   1     -44.538  11.335  23.223  0.00  0.00     0.002 A 
ENDBRANCH   9  10
ENDBRANCH   8   9
ENDBRANCH   7   8
ENDBRANCH   6   7
BRANCH   1  16
ATOM     16  C   UNL d   1     -48.455  14.403  22.138  0.00  0.00     0.080 C 
BRANCH  16  17
ATOM     17  C   UNL d   1     -49.212  14.624  22.380  0.00  0.00     0.018 A 
ATOM     18  C   UNL d   1     -49.878  14.250  22.054  0.00  0.00     0.002 A 
ATOM     19  C   UNL d   1     -50.639  14.473  22.298  0.00  0.00     0.000 A 
ATOM     20  C   UNL d   1     -50.732  15.065  22.865  0.00  0.00     0.000 A 
ATOM     21  C   UNL d   1     -50.069  15.436  23.190  0.00  0.00     0.000 A 
ATOM     22  C   UNL d   1     -49.308  15.218  22.950  0.00  0.00     0.002 A 
ENDBRANCH  16  17
ENDBRANCH   1  16
TORSDOF 6
ENDMDL
MODEL 3
REMARK VINA RESULT:      -5.1      1.013      5.056
REMARK  6 active torsions:
REMARK  status: ('A' for Active; 'I' for Inactive)
REMARK    1  A    between atoms: C_2  and  N_1 
REMARK    2  A    between atoms: C_6  and  C_2 
REMARK    3  A    between atoms: O_5  and  C_12 
REMARK    4  A    between atoms: C_11  and  O_5 
REMARK    5  A    between atoms: C_12  and  C_9 
REMARK    6  A    between atoms: C_10  and  C_11 
ROOT
ATOM      1  N   UNL d   1     -40.202  15.055  20.835  0.00  0.00    -0.302 N 
ATOM      2  C   UNL d   1     -40.545  14.441  20.399  0.00  0.00     0.080 A 
ATOM      3  C   UNL d   1     -39.932  15.736  20.448  0.00  0.00     0.080 A 
ATOM      4  C   UNL d   1     -40.618  14.502  19.587  0.00  0.00     0.021 A 
ATOM      5  C   UNL d   1     -40.004  15.801  19.629  0.00  0.00     0.021 A 
ATOM      6  C   UNL d   1     -40.350  15.180  19.192  0.00  0.00     0.028 A 
ENDROOT
BRANCH   6   7
ATOM      7  C   UNL d   1     -40.422  15.245  18.373  0.00  0.00     0.123 C 
BRANCH   7   8
ATOM      8  O   UNL d   1     -39.786  15.036  17.881  0.00  0.00    -0.303 OA
BRANCH   8   9
ATOM      9  C   UNL d   1     -39.882  15.008  17.069  0.00  0.00     0.123 C 
BRANCH   9  10
ATOM     10  C   UNL d   1     -39.237  14.873  16.579  0.00  0.00     0.025 A 
ATOM     11  C   UNL d   1     -39.012  14.102  16.407  0.00  0.00     0.002 A 
ATOM     12  C   UNL d   1     -38.366  13.967  15.915  0.00  0.00     0.000 A 
ATOM     13  C   UNL d   1     -37.945  14.603  15.596  0.00  0.00     0.000 A 
ATOM     14  C   UNL d   1     -38.179  15.375  15.775  0.00  0.00     0.000 A 
ATOM     15  C   UNL d   1     -38.825  15.511  16.266  0.00  0.00     0.002 A 
ENDBRANCH   9  10
ENDBRANCH   8   9
ENDBRANCH   7   8
ENDBRANCH   6   7
BRANCH   1  16
ATOM     16  C   UNL d   1     -40.133  14.985  21.646  0.00  0.00     0.080 C 
BRANCH  16  17
ATOM     17  C   UNL d   1     -39.457  14.649  21.978  0.00  0.00     0.018 A 
ATOM     18  C   UNL d   1     -39.408  13.825  22.076  0.00  0.00     0.002 A 
ATOM     19  C   UNL d   1     -38.728  13.487  22.409  0.00  0.00     0.000 A 
ATOM     20  C   UNL d   1     -38.102  13.970  22.644  0.00  0.00     0.000 A 
ATOM     21  C   UNL d   1     -38.151  14.789  22.547  0.00  0.00     0.000 A 
ATOM     22  C   UNL d   1     -38.827  15.131  22.215  0.00  0.00     0.002 A 
ENDBRANCH  16  17
ENDBRANCH   1  16
TORSDOF 6
ENDMDL
MODEL 4
REMARK VINA RESULT:      -4.3      5.565      7.559
REMARK  6 active torsions:
REMARK  status: ('A' for Active; 'I' for Inactive)
REMARK    1  A    between atoms: C_2  and  N_1 
REMARK    2  A    between atoms: C_6  and  C_2 
REMARK    3  A    between atoms: O_5  and  C_12 
REMARK    4  A    between atoms: C_11  and  O_5 
REMARK    5  A    between atoms: C_12  and  C_9 
REMARK    6  A    between atoms: C_10  and  C_11 
ROOT
ATOM      1  N   UNL d   1     -45.713  12.936  22.820  0.00  0.00    -0.302 N 
ATOM      2  C   UNL d   1     -45.549  13.513  22.251  0.00  0.00     0.080 A 
ATOM      3  C   UNL d   1     -45.205  12.288  22.910  0.00  0.00     0.080 A 
ATOM      4  C   UNL d   1     -44.887  13.448  21.776  0.00  0.00     0.021 A 
ATOM      5  C   UNL d   1     -44.536  12.219  22.432  0.00  0.00     0.021 A 
ATOM      6  C   UNL d   1     -44.373  12.804  21.859  0.00  0.00     0.028 A 
ENDROOT
BRANCH   6   7
ATOM      7  C   UNL d   1     -43.704  12.734  21.381  0.00  0.00     0.123 C 
BRANCH   7   8
ATOM      8  O   UNL d   1     -43.072  13.267  21.470  0.00  0.00    -0.303 OA
BRANCH   8   9
ATOM      9  C   UNL d   1     -42.391  13.178  21.028  0.00  0.00     0.123 C 
BRANCH   9  10
ATOM     10  C   UNL d   1     -41.789  13.736  21.074  0.00  0.00     0.025 A 
ATOM     11  C   UNL d   1     -41.079  13.538  21.435  0.00  0.00     0.002 A 
ATOM     12  C   UNL d   1     -40.477  14.097  21.481  0.00  0.00     0.000 A 
ATOM     13  C   UNL d   1     -40.585  14.853  21.166  0.00  0.00     0.000 A 
ATOM     14  C   UNL d   1     -41.304  15.044  20.803  0.00  0.00     0.000 A 
ATOM     15  C   UNL d   1     -41.906  14.485  20.757  0.00  0.00     0.002 A 
ENDBRANCH   9  10
ENDBRANCH   8   9
ENDBRANCH   7   8
ENDBRANCH   6   7
BRANCH   1  16
ATOM     16  C   UNL d   1     -46.377  13.009  23.291  0.00  0.00     0.080 C 
BRANCH  16  17
ATOM     17  C   UNL d   1     -47.057  12.574  23.121  0.00  0.00     0.018 A 
ATOM     18  C   UNL d   1     -47.203  11.858  23.517  0.00  0.00     0.002 A 
ATOM     19  C   UNL d   1     -47.886  11.421  23.346  0.00  0.00     0.000 A 
ATOM     20  C   UNL d   1     -48.421  11.698  22.781  0.00  0.00     0.000 A 
ATOM     21  C   UNL d   1     -48.276  12.410  22.387  0.00  0.00     0.000 A 
ATOM     22  C   UNL d   1     -47.595  12.849  22.555  0.00  0.00     0.002 A 
ENDBRANCH  16  17
ENDBRANCH   1  16
TORSDOF 6
ENDMDL
MODEL 5
REMARK VINA RESULT:      -3.4      3.977      5.113
REMARK  6 active torsions:
REMARK  status: ('A' for Active; 'I' for Inactive)
REMARK    1  A    between atoms: C_2  and  N_1 
REMARK    2  A    between atoms: C_6  and  C_2 
REMARK    3  A    between atoms: O_5  and  C_12 
REMARK    4  A    between atoms: C_11  and  O_5 
REMARK    5  A    between atoms: C_12  and  C_9 
REMARK    6  A    between atoms: C_10  and  C_11 
ROOT
ATOM      1  N   UNL d   1     -41.473  14.111  21.066  0.00  0.00    -0.302 N 
ATOM      2  C   UNL d   1     -42.200  14.504  21.043  0.00  0.00     0.080 A 
ATOM      3  C   UNL d   1     -41.451  13.291  21.179  0.00  0.00     0.080 A 
ATOM      4  C   UNL d   1     -42.898  14.088  21.131  0.00  0.00     0.021 A 
ATOM      5  C   UNL d   1     -42.153  12.867  21.268  0.00  0.00     0.021 A 
ATOM      6  C   UNL d   1     -42.885  13.267  21.244  0.00  0.00     0.028 A 
ENDROOT
BRANCH   6   7
ATOM      7  C   UNL d   1     -43.587  12.843  21.333  0.00  0.00     0.123 C 
BRANCH   7   8
ATOM      8  O   UNL d   1     -44.201  13.149  21.802  0.00  0.00    -0.303 OA
BRANCH   8   9
ATOM      9  C   UNL d   1     -44.958  12.845  21.743  0.00  0.00     0.123 C 
BRANCH   9  10
ATOM     10  C   UNL d   1     -45.529  13.040  22.300  0.00  0.00     0.025 A 
ATOM     11  C   UNL d   1     -45.788  12.471  22.831  0.00  0.00     0.002 A 
ATOM     12  C   UNL d   1     -46.361  12.666  23.389  0.00  0.00     0.000 A 
ATOM     13  C   UNL d   1     -46.674  13.431  23.415  0.00  0.00     0.000 A 
ATOM     14  C   UNL d   1     -46.407  13.998  22.875  0.00  0.00     0.000 A 
ATOM     15  C   UNL d   1     -45.834  13.802  22.317  0.00  0.00     0.002 A 
ENDBRANCH   9  10
ENDBRANCH   8   9
ENDBRANCH   7   8
ENDBRANCH   6   7
BRANCH   1  16
ATOM     16  C   UNL d   1     -40.780  14.535  20.977  0.00  0.00     0.080 C 
BRANCH  16  17
ATOM     17  C   UNL d   1     -40.536  14.780  20.229  0.00  0.00     0.018 A 
ATOM     18  C   UNL d   1     -40.697  15.553  19.970  0.00  0.00     0.002 A 
ATOM     19  C   UNL d   1     -40.451  15.798  19.218  0.00  0.00     0.000 A 
ATOM     20  C   UNL d   1     -40.046  15.273  18.726  0.00  0.00     0.000 A 
ATOM     21  C   UNL d   1     -39.886  14.505  18.983  0.00  0.00     0.000 A 
ATOM     22  C   UNL d   1     -40.130  14.255  19.733  0.00  0.00     0.002 A 
ENDBRANCH  16  17
ENDBRANCH   1  16
TORSDOF 6
ENDMDL
