MODEL 1
REMARK VINA RESULT:      -7.3      0.000      0.000
REMARK  3 active torsions:
REMARK  status: ('A' for Active; 'I' for Inactive)
REMARK    1  A    between atoms: C_5  and  N_1 
REMARK    2  A    between atoms: C_4  and  C_5 
REMARK       I    between atoms: N_6  and  C_4 
REMARK    3  A    between atoms: C_12  and  N_6 
ROOT
ATOM      1  C   UNL d   1     -48.321  13.183  22.793  0.00  0.00     0.297 C 
ATOM      2  N   UNL d   1     -48.664  13.843  22.413  0.00  0.00    -0.207 NA
ATOM      3  O   UNL d   1     -48.618  13.017  23.551  0.00  0.00    -0.264 OA
ENDROOT
BRANCH   1   4
ATOM      4  C   UNL d   1     -47.717  12.697  22.465  0.00  0.00     0.148 C 
BRANCH   4   5
ATOM      5  N   UNL d   1     -47.278  12.210  22.931  0.00  0.00    -0.236 N 
ATOM      6  C   UNL d   1     -46.525  12.366  23.299  0.00  0.00     0.267 A 
ATOM      7  C   UNL d   1     -46.332  11.704  23.698  0.00  0.00     0.066 A 
ATOM      8  O   UNL d   1     -46.117  13.135  23.200  0.00  0.00    -0.267 OA
ATOM      9  C   UNL d   1     -46.904  11.145  23.610  0.00  0.00     0.066 A 
ATOM     10  C   UNL d   1     -47.481  11.438  23.149  0.00  0.00     0.267 A 
ATOM     11  O   UNL d   1     -48.174  11.101  22.894  0.00  0.00    -0.267 OA
ENDBRANCH   4   5
ENDBRANCH   1   4
BRANCH   2  12
ATOM     12  C   UNL d   1     -49.229  14.299  22.716  0.00  0.00     0.085 A 
ATOM     13  C   UNL d   1     -50.033  14.086  22.793  0.00  0.00     0.020 A 
ATOM     14  C   UNL d   1     -50.599  14.542  23.097  0.00  0.00     0.008 A 
ATOM     15  C   UNL d   1     -50.401  15.296  23.366  0.00  0.00     0.035 A 
ATOM     16  C   UNL d   1     -49.624  15.567  23.318  0.00  0.00     0.008 A 
ATOM     17 BR   UNL d   1     -50.994  15.809  23.698  0.00  0.00    -0.049 Br
ATOM     18  C   UNL d   1     -49.039  15.061  22.990  0.00  0.00     0.020 A 
ENDBRANCH   2  12
TORSDOF 3
ENDMDL
MODEL 2
REMARK VINA RESULT:      -6.9      2.156      4.072
REMARK  3 active torsions:
REMARK  status: ('A' for Active; 'I' for Inactive)
REMARK    1  A    between atoms: C_5  and  N_1 
REMARK    2  A    between atoms: C_4  and  C_5 
REMARK       I    between atoms: N_6  and  C_4 
REMARK    3  A    between atoms: C_12  and  N_6 
ROOT
ATOM      1  C   UNL d   1     -48.649  13.721  22.820  0.00  0.00     0.297 C 
ATOM      2  N   UNL d   1     -47.974  13.608  23.300  0.00  0.00    -0.207 NA
ATOM      3  O   UNL d   1     -48.505  13.720  22.002  0.00  0.00    -0.264 OA
ENDROOT
BRANCH   1   4
ATOM      4  C   UNL d   1     -49.432  13.829  23.108  0.00  0.00     0.148 C 
BRANCH   4   5
ATOM      5  N   UNL d   1     -50.059  13.858  22.604  0.00  0.00    -0.236 N 
ATOM      6  C   UNL d   1     -50.505  13.210  22.276  0.00  0.00     0.267 A 
ATOM      7  C   UNL d   1     -51.064  13.537  21.813  0.00  0.00     0.066 A 
ATOM      8  O   UNL d   1     -50.311  12.377  22.470  0.00  0.00    -0.267 OA
ATOM      9  C   UNL d   1     -51.004  14.339  21.824  0.00  0.00     0.066 A 
ATOM     10  C   UNL d   1     -50.401  14.546  22.298  0.00  0.00     0.267 A 
ATOM     11  O   UNL d   1     -50.114  15.279  22.495  0.00  0.00    -0.267 OA
ENDBRANCH   4   5
ENDBRANCH   1   4
BRANCH   2  12
ATOM     12  C   UNL d   1     -47.240  13.506  23.035  0.00  0.00     0.085 A 
ATOM     13  C   UNL d   1     -46.730  14.116  22.779  0.00  0.00     0.020 A 
ATOM     14  C   UNL d   1     -45.995  14.014  22.514  0.00  0.00     0.008 A 
ATOM     15  C   UNL d   1     -45.687  13.250  22.478  0.00  0.00     0.035 A 
ATOM     16  C   UNL d   1     -46.140  12.605  22.716  0.00  0.00     0.008 A 
ATOM     17 BR   UNL d   1     -44.895  13.113  22.195  0.00  0.00    -0.049 Br
ATOM     18  C   UNL d   1     -46.920  12.740  22.995  0.00  0.00     0.020 A 
ENDBRANCH   2  12
TORSDOF 3
ENDMDL
MODEL 3
REMARK VINA RESULT:      -6.2      1.435      1.978
REMARK  3 active torsions:
REMARK  status: ('A' for Active; 'I' for Inactive)
REMARK    1  A    between atoms: C_5  and  N_1 
REMARK    2  A    between atoms: C_4  and  C_5 
REMARK       I    between atoms: N_6  and  C_4 
REMARK    3  A    between atoms: C_12  and  N_6 
ROOT
ATOM      1  C   UNL d   1     -47.469  13.413  22.917  0.00  0.00     0.297 C 
ATOM      2  N   UNL d   1     -48.168  13.772  23.203  0.00  0.00    -0.207 NA
ATOM      3  O   UNL d   1     -47.530  13.076  22.161  0.00  0.00    -0.264 OA
ENDROOT
BRANCH   1   4
ATOM      4  C   UNL d   1     -46.739  13.378  23.334  0.00  0.00     0.148 C 
BRANCH   4   5
ATOM      5  N   UNL d   1     -46.119  12.953  23.049  0.00  0.00    -0.236 N 
ATOM      6  C   UNL d   1     -45.929  12.134  23.188  0.00  0.00     0.267 A 
ATOM      7  C   UNL d   1     -45.261  11.988  22.778  0.00  0.00     0.066 A 
ATOM      8  O   UNL d   1     -46.431  11.628  23.698  0.00  0.00    -0.267 OA
ATOM      9  C   UNL d   1     -45.017  12.651  22.393  0.00  0.00     0.066 A 
ATOM     10  C   UNL d   1     -45.527  13.241  22.548  0.00  0.00     0.267 A 
ATOM     11  O   UNL d   1     -45.530  14.013  22.297  0.00  0.00    -0.267 OA
ENDBRANCH   4   5
ENDBRANCH   1   4
BRANCH   2  12
ATOM     12  C   UNL d   1     -48.852  13.807  22.816  0.00  0.00     0.085 A 
ATOM     13  C   UNL d   1     -49.075  14.411  22.284  0.00  0.00     0.020 A 
ATOM     14  C   UNL d   1     -49.760  14.447  21.896  0.00  0.00     0.008 A 
ATOM     15  C   UNL d   1     -50.315  13.849  22.012  0.00  0.00     0.035 A 
ATOM     16  C   UNL d   1     -50.156  13.225  22.525  0.00  0.00     0.008 A 
ATOM     17 BR   UNL d   1     -51.063  13.865  21.605  0.00  0.00    -0.049 Br
ATOM     18  C   UNL d   1     -49.418  13.209  22.927  0.00  0.00     0.020 A 
ENDBRANCH   2  12
TORSDOF 3
ENDMDL
MODEL 4
REMARK VINA RESULT:      -5.7      9.001     10.311
REMARK  3 active torsions:
REMARK  status: ('A' for Active; 'I' for Inactive)
REMARK    1  A    between atoms: C_5  and  N_1 
REMARK    2  A    between atoms: C_4  and  C_5 
REMARK       I    between atoms: N_6  and  C_4 
REMARK    3  A    between atoms: C_12  and  N_6 
ROOT
ATOM      1  C   UNL d   1     -40.048  14.428  19.155  0.00  0.00     0.297 C 
ATOM      2  N   UNL d   1     -40.159  13.981  18.457  0.00  0.00    -0.207 NA
ATOM      3  O   UNL d   1     -39.384  14.927  19.153  0.00  0.00    -0.264 OA
ENDROOT
BRANCH   1   4
ATOM      4  C   UNL d   1     -40.550  14.401  19.830  0.00  0.00     0.148 C 
BRANCH   4   5
ATOM      5  N   UNL d   1     -40.422  14.883  20.461  0.00  0.00    -0.236 N 
ATOM      6  C   UNL d   1     -39.907  14.757  21.128  0.00  0.00     0.267 A 
ATOM      7  C   UNL d   1     -39.985  15.399  21.593  0.00  0.00     0.066 A 
ATOM      8  O   UNL d   1     -39.424  14.030  21.202  0.00  0.00    -0.267 OA
ATOM      9  C   UNL d   1     -40.508  15.919  21.271  0.00  0.00     0.066 A 
ATOM     10  C   UNL d   1     -40.779  15.619  20.587  0.00  0.00     0.267 A 
ATOM     11  O   UNL d   1     -41.312  15.922  20.054  0.00  0.00    -0.267 OA
ENDBRANCH   4   5
ENDBRANCH   1   4
BRANCH   2  12
ATOM     12  C   UNL d   1     -39.693  14.003  17.824  0.00  0.00     0.085 A 
ATOM     13  C   UNL d   1     -39.699  14.600  17.240  0.00  0.00     0.020 A 
ATOM     14  C   UNL d   1     -39.232  14.623  16.606  0.00  0.00     0.008 A 
ATOM     15  C   UNL d   1     -38.685  14.016  16.493  0.00  0.00     0.035 A 
ATOM     16  C   UNL d   1     -38.629  13.397  17.033  0.00  0.00     0.008 A 
ATOM     17 BR   UNL d   1     -38.169  14.017  15.816  0.00  0.00    -0.049 Br
ATOM     18  C   UNL d   1     -39.139  13.396  17.701  0.00  0.00     0.020 A 
ENDBRANCH   2  12
TORSDOF 3
ENDMDL
MODEL 5
REMARK VINA RESULT:      -5.7      9.161      9.801
REMARK  3 active torsions:
REMARK  status: ('A' for Active; 'I' for Inactive)
REMARK    1  A    between atoms: C_5  and  N_1 
REMARK    2  A    between atoms: C_4  and  C_5 
REMARK       I    between atoms: N_6  and  C_4 
REMARK    3  A    between atoms: C_12  and  N_6 
ROOT
ATOM      1  C   UNL d   1     -40.245  14.687  19.456  0.00  0.00     0.297 C 
ATOM      2  N   UNL d   1     -40.505  14.601  20.246  0.00  0.00    -0.207 NA
ATOM      3  O   UNL d   1     -39.527  15.093  19.364  0.00  0.00    -0.264 OA
ENDROOT
BRANCH   1   4
ATOM      4  C   UNL d   1     -40.653  14.398  18.779  0.00  0.00     0.148 C 
BRANCH   4   5
ATOM      5  N   UNL d   1     -40.360  14.510  18.039  0.00  0.00    -0.236 N 
ATOM      6  C   UNL d   1     -39.812  14.020  17.606  0.00  0.00     0.267 A 
ATOM      7  C   UNL d   1     -39.703  14.378  16.903  0.00  0.00     0.066 A 
ATOM      8  O   UNL d   1     -39.485  13.284  17.952  0.00  0.00    -0.267 OA
ATOM      9  C   UNL d   1     -40.138  15.053  16.859  0.00  0.00     0.066 A 
ATOM     10  C   UNL d   1     -40.540  15.144  17.539  0.00  0.00     0.267 A 
ATOM     11  O   UNL d   1     -41.052  15.729  17.773  0.00  0.00    -0.267 OA
ENDBRANCH   4   5
ENDBRANCH   1   4
BRANCH   2  12
ATOM     12  C   UNL d   1     -40.127  14.869  20.881  0.00  0.00     0.085 A 
ATOM     13  C   UNL d   1     -40.168  15.651  21.173  0.00  0.00     0.020 A 
ATOM     14  C   UNL d   1     -39.790  15.921  21.809  0.00  0.00     0.008 A 
ATOM     15  C   UNL d   1     -39.308  15.404  22.235  0.00  0.00     0.035 A 
ATOM     16  C   UNL d   1     -39.225  14.619  21.998  0.00  0.00     0.008 A 
ATOM     17 BR   UNL d   1     -38.888  15.671  22.926  0.00  0.00    -0.049 Br
ATOM     18  C   UNL d   1     -39.640  14.356  21.317  0.00  0.00     0.020 A 
ENDBRANCH   2  12
TORSDOF 3
ENDMDL
