MODEL 1
REMARK VINA RESULT:      -3.2      0.000      0.000
REMARK  5 active torsions:
REMARK  status: ('A' for Active; 'I' for Inactive)
REMARK    1  A    between atoms: N_6  and  C_1 
REMARK    2  A    between atoms: S_10  and  C_4 
REMARK       I    between atoms: C_7  and  N_6 
REMARK       I    between atoms: N_8  and  C_7 
REMARK    3  A    between atoms: C_11  and  N_8 
REMARK    4  A    between atoms: C_18  and  S_10 
REMARK    5  A    between atoms: C_19  and  C_18 
ROOT
ATOM      1  N   UNL d   1      32.960  19.412 -22.404  0.00  0.00    -0.321 NA
ATOM      2  C   UNL d   1      33.045  18.865 -22.843  0.00  0.00     0.422 C 
ATOM      3  N   UNL d   1      33.174  18.190 -23.385  0.00  0.00    -0.180 NA
ATOM      4  O   UNL d   1      32.353  18.778 -22.899  0.00  0.00    -0.228 OA
ENDROOT
BRANCH   1   5
ATOM      5  C   UNL d   1      33.033  20.091 -21.863  0.00  0.00     0.271 A 
ATOM      6  S   UNL d   1      33.008  20.795 -21.915  0.00  0.00    -0.006 SA
ATOM      7  C   UNL d   1      33.095  21.186 -21.326  0.00  0.00     0.166 A 
ATOM      8  N   UNL d   1      33.204  20.873 -20.702  0.00  0.00    -0.132 NA
ATOM      9  N   UNL d   1      33.142  19.778 -21.238  0.00  0.00    -0.107 NA
BRANCH   7  10
ATOM     10  S   UNL d   1      33.092  21.905 -21.241  0.00  0.00    -0.059 SA
BRANCH  10  11
ATOM     11  C   UNL d   1      32.421  22.281 -20.957  0.00  0.00     0.037 C 
BRANCH  11  12
ATOM     12  C   UNL d   1      32.450  23.079 -20.765  0.00  0.00     0.007 C 
ATOM     13  C   UNL d   1      31.822  23.573 -20.948  0.00  0.00     0.001 C 
ENDBRANCH  11  12
ENDBRANCH  10  11
ENDBRANCH   7  10
ENDBRANCH   1   5
BRANCH   3  14
ATOM     14  C   UNL d   1      32.519  17.784 -23.696  0.00  0.00     0.087 A 
ATOM     15  C   UNL d   1      32.230  17.114 -23.309  0.00  0.00     0.022 A 
ATOM     16  C   UNL d   1      31.579  16.720 -23.627  0.00  0.00     0.031 A 
ATOM     17  C   UNL d   1      31.219  16.984 -24.320  0.00  0.00     0.140 A 
ATOM     18  C   UNL d   1      31.513  17.654 -24.702  0.00  0.00     0.031 A 
ATOM     19  F   UNL d   1      30.564  16.579 -24.632  0.00  0.00    -0.204 F 
ATOM     20  C   UNL d   1      32.163  18.054 -24.390  0.00  0.00     0.022 A 
ENDBRANCH   3  14
TORSDOF 5
ENDMDL
MODEL 2
REMARK VINA RESULT:      -3.0      2.224      5.091
REMARK  5 active torsions:
REMARK  status: ('A' for Active; 'I' for Inactive)
REMARK    1  A    between atoms: N_6  and  C_1 
REMARK    2  A    between atoms: S_10  and  C_4 
REMARK       I    between atoms: C_7  and  N_6 
REMARK       I    between atoms: N_8  and  C_7 
REMARK    3  A    between atoms: C_11  and  N_8 
REMARK    4  A    between atoms: C_18  and  S_10 
REMARK    5  A    between atoms: C_19  and  C_18 
ROOT
ATOM      1  N   UNL d   1      32.978  19.616 -22.281  0.00  0.00    -0.321 NA
ATOM      2  C   UNL d   1      33.089  20.058 -21.740  0.00  0.00     0.422 C 
ATOM      3  N   UNL d   1      33.241  20.587 -21.060  0.00  0.00    -0.180 NA
ATOM      4  O   UNL d   1      32.675  20.544 -22.026  0.00  0.00    -0.228 OA
ENDROOT
BRANCH   1   5
ATOM      5  C   UNL d   1      32.948  18.965 -22.858  0.00  0.00     0.271 A 
ATOM      6  S   UNL d   1      32.842  18.267 -22.840  0.00  0.00    -0.006 SA
ATOM      7  C   UNL d   1      32.859  17.901 -23.451  0.00  0.00     0.166 A 
ATOM      8  N   UNL d   1      32.981  18.233 -24.064  0.00  0.00    -0.132 NA
ATOM      9  N   UNL d   1      33.070  19.296 -23.470  0.00  0.00    -0.107 NA
BRANCH   7  10
ATOM     10  S   UNL d   1      32.768  17.194 -23.572  0.00  0.00    -0.059 SA
BRANCH  10  11
ATOM     11  C   UNL d   1      32.013  16.890 -23.680  0.00  0.00     0.037 C 
BRANCH  11  12
ATOM     12  C   UNL d   1      31.897  16.078 -23.694  0.00  0.00     0.007 C 
ATOM     13  C   UNL d   1      31.242  15.758 -24.070  0.00  0.00     0.001 C 
ENDBRANCH  11  12
ENDBRANCH  10  11
ENDBRANCH   7  10
ENDBRANCH   1   5
BRANCH   3  14
ATOM     14  C   UNL d   1      32.884  21.337 -21.038  0.00  0.00     0.087 A 
ATOM     15  C   UNL d   1      32.179  21.443 -20.621  0.00  0.00     0.022 A 
ATOM     16  C   UNL d   1      31.833  22.192 -20.606  0.00  0.00     0.031 A 
ATOM     17  C   UNL d   1      32.181  22.829 -20.998  0.00  0.00     0.140 A 
ATOM     18  C   UNL d   1      32.886  22.716 -21.412  0.00  0.00     0.031 A 
ATOM     19  F   UNL d   1      31.825  23.579 -20.976  0.00  0.00    -0.204 F 
ATOM     20  C   UNL d   1      33.238  21.970 -21.432  0.00  0.00     0.022 A 
ENDBRANCH   3  14
TORSDOF 5
ENDMDL
MODEL 3
REMARK VINA RESULT:      -2.8      0.921      1.185
REMARK  5 active torsions:
REMARK  status: ('A' for Active; 'I' for Inactive)
REMARK    1  A    between atoms: N_6  and  C_1 
REMARK    2  A    between atoms: S_10  and  C_4 
REMARK       I    between atoms: C_7  and  N_6 
REMARK       I    between atoms: N_8  and  C_7 
REMARK    3  A    between atoms: C_11  and  N_8 
REMARK    4  A    between atoms: C_18  and  S_10 
REMARK    5  A    between atoms: C_19  and  C_18 
ROOT
ATOM      1  N   UNL d   1      32.893  18.887 -22.974  0.00  0.00    -0.321 NA
ATOM      2  C   UNL d   1      32.958  18.253 -23.279  0.00  0.00     0.422 C 
ATOM      3  N   UNL d   1      33.064  17.471 -23.657  0.00  0.00    -0.180 NA
ATOM      4  O   UNL d   1      32.263  18.178 -23.318  0.00  0.00    -0.228 OA
ENDROOT
BRANCH   1   5
ATOM      5  C   UNL d   1      32.988  19.666 -22.597  0.00  0.00     0.271 A 
ATOM      6  S   UNL d   1      33.020  19.919 -21.938  0.00  0.00    -0.006 SA
ATOM      7  C   UNL d   1      33.106  20.619 -21.843  0.00  0.00     0.166 A 
ATOM      8  N   UNL d   1      33.158  21.053 -22.399  0.00  0.00    -0.132 NA
ATOM      9  N   UNL d   1      33.040  20.100 -23.153  0.00  0.00    -0.107 NA
BRANCH   7  10
ATOM     10  S   UNL d   1      33.154  21.003 -21.230  0.00  0.00    -0.059 SA
BRANCH  10  11
ATOM     11  C   UNL d   1      32.638  21.627 -21.096  0.00  0.00     0.037 C 
BRANCH  11  12
ATOM     12  C   UNL d   1      32.590  21.964 -20.349  0.00  0.00     0.007 C 
ATOM     13  C   UNL d   1      32.176  22.662 -20.234  0.00  0.00     0.001 C 
ENDBRANCH  11  12
ENDBRANCH  10  11
ENDBRANCH   7  10
ENDBRANCH   1   5
BRANCH   3  14
ATOM     14  C   UNL d   1      32.396  17.027 -23.873  0.00  0.00     0.087 A 
ATOM     15  C   UNL d   1      32.094  17.089 -24.640  0.00  0.00     0.022 A 
ATOM     16  C   UNL d   1      31.430  16.644 -24.844  0.00  0.00     0.031 A 
ATOM     17  C   UNL d   1      31.068  16.144 -24.296  0.00  0.00     0.140 A 
ATOM     18  C   UNL d   1      31.376  16.087 -23.532  0.00  0.00     0.031 A 
ATOM     19  F   UNL d   1      30.400  15.701 -24.513  0.00  0.00    -0.204 F 
ATOM     20  C   UNL d   1      32.039  16.529 -23.321  0.00  0.00     0.022 A 
ENDBRANCH   3  14
TORSDOF 5
ENDMDL
MODEL 4
REMARK VINA RESULT:      -2.6      1.431      1.947
REMARK  5 active torsions:
REMARK  status: ('A' for Active; 'I' for Inactive)
REMARK    1  A    between atoms: N_6  and  C_1 
REMARK    2  A    between atoms: S_10  and  C_4 
REMARK       I    between atoms: C_7  and  N_6 
REMARK       I    between atoms: N_8  and  C_7 
REMARK    3  A    between atoms: C_11  and  N_8 
REMARK    4  A    between atoms: C_18  and  S_10 
REMARK    5  A    between atoms: C_19  and  C_18 
ROOT
ATOM      1  N   UNL d   1      32.692  20.592 -21.433  0.00  0.00    -0.321 NA
ATOM      2  C   UNL d   1      32.902  19.957 -21.661  0.00  0.00     0.422 C 
ATOM      3  N   UNL d   1      33.172  19.166 -21.922  0.00  0.00    -0.180 NA
ATOM      4  O   UNL d   1      32.621  20.070 -22.292  0.00  0.00    -0.228 OA
ENDROOT
BRANCH   1   5
ATOM      5  C   UNL d   1      32.511  21.325 -21.000  0.00  0.00     0.271 A 
ATOM      6  S   UNL d   1      32.871  21.804 -20.626  0.00  0.00    -0.006 SA
ATOM      7  C   UNL d   1      32.519  22.355 -20.343  0.00  0.00     0.166 A 
ATOM      8  N   UNL d   1      31.820  22.418 -20.435  0.00  0.00    -0.132 NA
ATOM      9  N   UNL d   1      31.813  21.389 -21.092  0.00  0.00    -0.107 NA
BRANCH   7  10
ATOM     10  S   UNL d   1      32.763  22.908 -19.944  0.00  0.00    -0.059 SA
BRANCH  10  11
ATOM     11  C   UNL d   1      32.944  22.794 -19.152  0.00  0.00     0.037 C 
BRANCH  11  12
ATOM     12  C   UNL d   1      33.146  23.436 -18.682  0.00  0.00     0.007 C 
ATOM     13  C   UNL d   1      33.220  23.349 -17.870  0.00  0.00     0.001 C 
ENDBRANCH  11  12
ENDBRANCH  10  11
ENDBRANCH   7  10
ENDBRANCH   1   5
BRANCH   3  14
ATOM     14  C   UNL d   1      33.008  18.913 -22.696  0.00  0.00     0.087 A 
ATOM     15  C   UNL d   1      32.694  18.160 -22.823  0.00  0.00     0.022 A 
ATOM     16  C   UNL d   1      32.535  17.919 -23.596  0.00  0.00     0.031 A 
ATOM     17  C   UNL d   1      32.686  18.417 -24.236  0.00  0.00     0.140 A 
ATOM     18  C   UNL d   1      33.000  19.168 -24.102  0.00  0.00     0.031 A 
ATOM     19  F   UNL d   1      32.522  18.164 -25.010  0.00  0.00    -0.204 F 
ATOM     20  C   UNL d   1      33.161  19.416 -23.332  0.00  0.00     0.022 A 
ENDBRANCH   3  14
TORSDOF 5
ENDMDL
MODEL 5
REMARK VINA RESULT:      -2.3      3.551      6.365
REMARK  5 active torsions:
REMARK  status: ('A' for Active; 'I' for Inactive)
REMARK    1  A    between atoms: N_6  and  C_1 
REMARK    2  A    between atoms: S_10  and  C_4 
REMARK       I    between atoms: C_7  and  N_6 
REMARK       I    between atoms: N_8  and  C_7 
REMARK    3  A    between atoms: C_11  and  N_8 
REMARK    4  A    between atoms: C_18  and  S_10 
REMARK    5  A    between atoms: C_19  and  C_18 
ROOT
ATOM      1  N   UNL d   1      32.646  22.526 -20.029  0.00  0.00    -0.321 NA
ATOM      2  C   UNL d   1      32.647  23.044 -19.548  0.00  0.00     0.422 C 
ATOM      3  N   UNL d   1      32.651  23.702 -18.970  0.00  0.00    -0.180 NA
ATOM      4  O   UNL d   1      32.584  22.584 -19.024  0.00  0.00    -0.228 OA
ENDROOT
BRANCH   1   5
ATOM      5  C   UNL d   1      32.661  22.020 -20.738  0.00  0.00     0.271 A 
ATOM      6  S   UNL d   1      32.578  21.334 -20.881  0.00  0.00    -0.006 SA
ATOM      7  C   UNL d   1      32.631  21.116 -21.557  0.00  0.00     0.166 A 
ATOM      8  N   UNL d   1      32.765  21.579 -22.074  0.00  0.00    -0.132 NA
ATOM      9  N   UNL d   1      32.795  22.484 -21.254  0.00  0.00    -0.107 NA
BRANCH   7  10
ATOM     10  S   UNL d   1      32.568  20.451 -21.837  0.00  0.00    -0.059 SA
BRANCH  10  11
ATOM     11  C   UNL d   1      33.238  20.044 -22.082  0.00  0.00     0.037 C 
BRANCH  11  12
ATOM     12  C   UNL d   1      33.218  19.226 -22.147  0.00  0.00     0.007 C 
ATOM     13  C   UNL d   1      33.173  18.869 -22.884  0.00  0.00     0.001 C 
ENDBRANCH  11  12
ENDBRANCH  10  11
ENDBRANCH   7  10
ENDBRANCH   1   5
BRANCH   3  14
ATOM     14  C   UNL d   1      32.587  23.534 -18.159  0.00  0.00     0.087 A 
ATOM     15  C   UNL d   1      33.241  23.240 -17.749  0.00  0.00     0.022 A 
ATOM     16  C   UNL d   1      33.166  23.077 -16.944  0.00  0.00     0.031 A 
ATOM     17  C   UNL d   1      32.453  23.203 -16.549  0.00  0.00     0.140 A 
ATOM     18  C   UNL d   1      31.804  23.497 -16.965  0.00  0.00     0.031 A 
ATOM     19  F   UNL d   1      32.389  23.035 -15.738  0.00  0.00    -0.204 F 
ATOM     20  C   UNL d   1      31.871  23.663 -17.770  0.00  0.00     0.022 A 
ENDBRANCH   3  14
TORSDOF 5
ENDMDL
MODEL 6
REMARK VINA RESULT:      -2.0      1.678      2.597
REMARK  5 active torsions:
REMARK  status: ('A' for Active; 'I' for Inactive)
REMARK    1  A    between atoms: N_6  and  C_1 
REMARK    2  A    between atoms: S_10  and  C_4 
REMARK       I    between atoms: C_7  and  N_6 
REMARK       I    between atoms: N_8  and  C_7 
REMARK    3  A    between atoms: C_11  and  N_8 
REMARK    4  A    between atoms: C_18  and  S_10 
REMARK    5  A    between atoms: C_19  and  C_18 
ROOT
ATOM      1  N   UNL d   1      31.854  17.849 -24.009  0.00  0.00    -0.321 NA
ATOM      2  C   UNL d   1      31.592  17.317 -24.394  0.00  0.00     0.422 C 
ATOM      3  N   UNL d   1      31.289  16.656 -24.880  0.00  0.00    -0.180 NA
ATOM      4  O   UNL d   1      30.955  17.405 -24.115  0.00  0.00    -0.228 OA
ENDROOT
BRANCH   1   5
ATOM      5  C   UNL d   1      32.329  18.465 -23.618  0.00  0.00     0.271 A 
ATOM      6  S   UNL d   1      32.420  18.704 -22.959  0.00  0.00    -0.006 SA
ATOM      7  C   UNL d   1      32.876  19.240 -22.848  0.00  0.00     0.166 A 
ATOM      8  N   UNL d   1      33.230  19.527 -23.388  0.00  0.00    -0.132 NA
ATOM      9  N   UNL d   1      32.684  18.752 -24.158  0.00  0.00    -0.107 NA
BRANCH   7  10
ATOM     10  S   UNL d   1      33.059  19.574 -22.232  0.00  0.00    -0.059 SA
BRANCH  10  11
ATOM     11  C   UNL d   1      32.869  20.365 -22.123  0.00  0.00     0.037 C 
BRANCH  11  12
ATOM     12  C   UNL d   1      32.741  20.653 -21.365  0.00  0.00     0.007 C 
ATOM     13  C   UNL d   1      32.764  21.460 -21.218  0.00  0.00     0.001 C 
ENDBRANCH  11  12
ENDBRANCH  10  11
ENDBRANCH   7  10
ENDBRANCH   1   5
BRANCH   3  14
ATOM     14  C   UNL d   1      30.490  16.437 -24.820  0.00  0.00     0.087 A 
ATOM     15  C   UNL d   1      30.292  15.662 -24.611  0.00  0.00     0.022 A 
ATOM     16  C   UNL d   1      29.495  15.455 -24.555  0.00  0.00     0.031 A 
ATOM     17  C   UNL d   1      28.901  16.008 -24.702  0.00  0.00     0.140 A 
ATOM     18  C   UNL d   1      29.106  16.780 -24.910  0.00  0.00     0.031 A 
ATOM     19  F   UNL d   1      28.102  15.789 -24.642  0.00  0.00    -0.204 F 
ATOM     20  C   UNL d   1      29.900  16.994 -24.969  0.00  0.00     0.022 A 
ENDBRANCH   3  14
TORSDOF 5
ENDMDL
MODEL 7
REMARK VINA RESULT:      -1.8      2.953      5.175
REMARK  5 active torsions:
REMARK  status: ('A' for Active; 'I' for Inactive)
REMARK    1  A    between atoms: N_6  and  C_1 
REMARK    2  A    between atoms: S_10  and  C_4 
REMARK       I    between atoms: C_7  and  N_6 
REMARK       I    between atoms: N_8  and  C_7 
REMARK    3  A    between atoms: C_11  and  N_8 
REMARK    4  A    between atoms: C_18  and  S_10 
REMARK    5  A    between atoms: C_19  and  C_18 
ROOT
ATOM      1  N   UNL d   1      31.905  17.091 -23.651  0.00  0.00    -0.321 NA
ATOM      2  C   UNL d   1      32.497  17.430 -23.462  0.00  0.00     0.422 C 
ATOM      3  N   UNL d   1      33.240  17.828 -23.230  0.00  0.00    -0.180 NA
ATOM      4  O   UNL d   1      32.152  18.036 -23.400  0.00  0.00    -0.228 OA
ENDROOT
BRANCH   1   5
ATOM      5  C   UNL d   1      31.283  16.532 -23.893  0.00  0.00     0.271 A 
ATOM      6  S   UNL d   1      30.651  16.330 -23.651  0.00  0.00    -0.006 SA
ATOM      7  C   UNL d   1      30.286  15.837 -24.014  0.00  0.00     0.166 A 
ATOM      8  N   UNL d   1      30.553  15.558 -24.606  0.00  0.00    -0.132 NA
ATOM      9  N   UNL d   1      31.550  16.253 -24.485  0.00  0.00    -0.107 NA
BRANCH   7  10
ATOM     10  S   UNL d   1      29.638  15.545 -23.878  0.00  0.00    -0.059 SA
BRANCH  10  11
ATOM     11  C   UNL d   1      28.980  16.028 -23.794  0.00  0.00     0.037 C 
BRANCH  11  12
ATOM     12  C   UNL d   1      28.325  15.759 -23.380  0.00  0.00     0.007 C 
ATOM     13  C   UNL d   1      27.638  16.206 -23.352  0.00  0.00     0.001 C 
ENDBRANCH  11  12
ENDBRANCH  10  11
ENDBRANCH   7  10
ENDBRANCH   1   5
BRANCH   3  14
ATOM     14  C   UNL d   1      33.233  18.641 -23.058  0.00  0.00     0.087 A 
ATOM     15  C   UNL d   1      33.217  18.893 -22.271  0.00  0.00     0.022 A 
ATOM     16  C   UNL d   1      33.210  19.702 -22.111  0.00  0.00     0.031 A 
ATOM     17  C   UNL d   1      33.218  20.256 -22.723  0.00  0.00     0.140 A 
ATOM     18  C   UNL d   1      33.233  19.997 -23.506  0.00  0.00     0.031 A 
ATOM     19  F   UNL d   1      33.210  21.068 -22.550  0.00  0.00    -0.204 F 
ATOM     20  C   UNL d   1      33.241  19.189 -23.674  0.00  0.00     0.022 A 
ENDBRANCH   3  14
TORSDOF 5
ENDMDL
