MODEL 1
REMARK VINA RESULT:      31.4      0.000      0.000
REMARK  4 active torsions:
REMARK  status: ('A' for Active; 'I' for Inactive)
REMARK    1  A    between atoms: N_9  and  C_3 
REMARK    2  A    between atoms: C_11  and  C_4 
REMARK    3  A    between atoms: C_15  and  C_10 
REMARK    4  A    between atoms: C_20  and  C_15 
ROOT
ATOM      1  N   UNL d   1      45.973 -17.086  43.088  0.00  0.00    -0.196 N 
ATOM      2  C   UNL d   1      46.144 -17.864  42.825  0.00  0.00     0.167 A 
ATOM      3  C   UNL d   1      45.998 -16.934  43.879  0.00  0.00     0.153 A 
ATOM      4  C   UNL d   1      46.124 -18.040  42.037  0.00  0.00     0.057 A 
ATOM      5  N   UNL d   1      45.768 -16.693  41.747  0.00  0.00    -0.161 NA
ATOM      6  N   UNL d   1      46.330 -18.444  43.370  0.00  0.00    -0.227 NA
ATOM      7  C   UNL d   1      46.184 -17.508  44.434  0.00  0.00     0.057 A 
ATOM      8  C   UNL d   1      45.937 -17.458  41.489  0.00  0.00     0.124 A 
ATOM      9  C   UNL d   1      46.352 -18.273  44.175  0.00  0.00     0.086 A 
ENDROOT
BRANCH   3  10
ATOM     10  N   UNL d   1      45.824 -16.144  44.146  0.00  0.00    -0.285 N 
ATOM     11  C   UNL d   1      45.041 -15.946  44.426  0.00  0.00     0.108 A 
ATOM     12  C   UNL d   1      44.877 -15.162  44.688  0.00  0.00     0.142 A 
ATOM     13  O   UNL d   1      45.486 -14.563  44.677  0.00  0.00    -0.300 OA
ATOM     14  C   UNL d   1      46.259 -14.773  44.396  0.00  0.00     0.142 A 
ATOM     15  C   UNL d   1      46.431 -15.554  44.132  0.00  0.00     0.108 A 
ENDBRANCH   3  10
BRANCH   9  16
ATOM     16  C   UNL d   1      46.548 -18.882  44.740  0.00  0.00     0.019 C 
BRANCH  16  17
ATOM     17  C   UNL d   1      45.990 -19.492  44.927  0.00  0.00     0.002 C 
ATOM     18  C   UNL d   1      46.166 -20.310  44.776  0.00  0.00     0.000 C 
ENDBRANCH  16  17
ENDBRANCH   9  16
BRANCH   4  19
ATOM     19  C   UNL d   1      46.295 -18.812  41.790  0.00  0.00     0.004 A 
ATOM     20  C   UNL d   1      46.386 -18.955  40.989  0.00  0.00     0.000 A 
ATOM     21  C   UNL d   1      46.557 -19.720  40.730  0.00  0.00     0.000 A 
ATOM     22  C   UNL d   1      46.632 -20.326  41.278  0.00  0.00     0.000 A 
ATOM     23  C   UNL d   1      46.541 -20.174  42.063  0.00  0.00     0.000 A 
ATOM     24  C   UNL d   1      46.370 -19.409  42.322  0.00  0.00     0.000 A 
ENDBRANCH   4  19
TORSDOF 4
ENDMDL
