MODEL 1
REMARK VINA RESULT:      63.3      0.000      0.000
REMARK  3 active torsions:
REMARK  status: ('A' for Active; 'I' for Inactive)
REMARK    1  A    between atoms: N_11  and  C_4 
REMARK    2  A    between atoms: C_18  and  N_15 
REMARK    3  A    between atoms: C_22  and  C_18 
ROOT
ATOM      1  N   UNL d   1      46.089 -18.125  40.891  0.00  0.00    -0.195 N 
ATOM      2  C   UNL d   1      46.275 -18.727  41.397  0.00  0.00     0.168 A 
ATOM      3  C   UNL d   1      46.279 -18.609  42.187  0.00  0.00     0.073 A 
ATOM      4  C   UNL d   1      46.090 -18.260  40.105  0.00  0.00     0.153 A 
ATOM      5  N   UNL d   1      45.909 -17.282  41.961  0.00  0.00    -0.143 NA
ATOM      6  C   UNL d   1      46.096 -17.885  42.467  0.00  0.00     0.185 A 
ATOM      7  N   UNL d   1      46.458 -19.451  41.105  0.00  0.00    -0.227 NA
ATOM      8  C   UNL d   1      46.464 -19.207  42.689  0.00  0.00     0.007 A 
ATOM      9  N   UNL d   1      46.095 -17.750  43.265  0.00  0.00    -0.225 NA
ATOM     10  C   UNL d   1      46.271 -18.975  39.811  0.00  0.00     0.057 A 
ATOM     11  C   UNL d   1      46.467 -19.089  43.478  0.00  0.00     0.019 A 
ATOM     12  C   UNL d   1      46.457 -19.578  40.318  0.00  0.00     0.086 A 
ATOM     13  C   UNL d   1      46.282 -18.354  43.772  0.00  0.00     0.083 A 
ATOM     14  C   UNL d   1      46.647 -19.933  42.393  0.00  0.00     0.000 C 
ATOM     15  C   UNL d   1      46.646 -20.330  40.011  0.00  0.00     0.021 C 
ATOM     16  C   UNL d   1      46.283 -18.229  44.556  0.00  0.00     0.021 C 
ENDROOT
BRANCH   4  17
ATOM     17  N   UNL d   1      45.897 -17.632  39.589  0.00  0.00    -0.286 N 
ATOM     18  C   UNL d   1      45.153 -17.853  39.313  0.00  0.00     0.101 A 
ATOM     19  C   UNL d   1      44.755 -17.356  38.766  0.00  0.00     0.100 A 
ATOM     20  N   UNL d   1      45.103 -16.645  38.500  0.00  0.00    -0.300 N 
ATOM     21  C   UNL d   1      45.860 -16.429  38.787  0.00  0.00     0.100 A 
ATOM     22  C   UNL d   1      46.261 -16.921  39.332  0.00  0.00     0.101 A 
BRANCH  20  23
ATOM     23  C   UNL d   1      44.704 -16.160  37.960  0.00  0.00     0.080 C 
BRANCH  23  24
ATOM     24  C   UNL d   1      45.127 -15.597  37.507  0.00  0.00     0.018 A 
ATOM     25  C   UNL d   1      44.984 -14.792  37.623  0.00  0.00     0.002 A 
ATOM     26  C   UNL d   1      45.398 -14.220  37.179  0.00  0.00     0.000 A 
ATOM     27  C   UNL d   1      45.962 -14.465  36.614  0.00  0.00     0.000 A 
ATOM     28  C   UNL d   1      46.106 -15.281  36.498  0.00  0.00     0.000 A 
ATOM     29  C   UNL d   1      45.686 -15.841  36.948  0.00  0.00     0.002 A 
ENDBRANCH  23  24
ENDBRANCH  20  23
ENDBRANCH   4  17
TORSDOF 3
ENDMDL
MODEL 2
REMARK VINA RESULT:      63.4      4.412      6.212
REMARK  3 active torsions:
REMARK  status: ('A' for Active; 'I' for Inactive)
REMARK    1  A    between atoms: N_11  and  C_4 
REMARK    2  A    between atoms: C_18  and  N_15 
REMARK    3  A    between atoms: C_22  and  C_18 
ROOT
ATOM      1  N   UNL d   1      44.469 -14.173  38.197  0.00  0.00    -0.195 N 
ATOM      2  C   UNL d   1      44.541 -14.682  37.572  0.00  0.00     0.168 A 
ATOM      3  C   UNL d   1      43.905 -15.072  37.289  0.00  0.00     0.073 A 
ATOM      4  C   UNL d   1      45.115 -13.793  38.467  0.00  0.00     0.153 A 
ATOM      5  N   UNL d   1      43.123 -14.442  38.259  0.00  0.00    -0.143 NA
ATOM      6  C   UNL d   1      43.195 -14.950  37.634  0.00  0.00     0.185 A 
ATOM      7  N   UNL d   1      45.258 -14.797  37.233  0.00  0.00    -0.227 NA
ATOM      8  C   UNL d   1      43.977 -15.576  36.669  0.00  0.00     0.007 A 
ATOM      9  N   UNL d   1      42.541 -15.338  37.358  0.00  0.00    -0.225 NA
ATOM     10  C   UNL d   1      45.827 -13.903  38.135  0.00  0.00     0.057 A 
ATOM     11  C   UNL d   1      43.340 -15.966  36.386  0.00  0.00     0.019 A 
ATOM     12  C   UNL d   1      45.899 -14.411  37.510  0.00  0.00     0.086 A 
ATOM     13  C   UNL d   1      42.614 -15.847  36.732  0.00  0.00     0.083 A 
ATOM     14  C   UNL d   1      44.697 -15.690  36.330  0.00  0.00     0.000 C 
ATOM     15  C   UNL d   1      46.646 -14.529  37.159  0.00  0.00     0.021 C 
ATOM     16  C   UNL d   1      41.976 -16.232  36.455  0.00  0.00     0.021 C 
ENDROOT
BRANCH   4  17
ATOM     17  N   UNL d   1      45.032 -13.269  39.113  0.00  0.00    -0.286 N 
ATOM     18  C   UNL d   1      45.650 -13.498  39.607  0.00  0.00     0.101 A 
ATOM     19  C   UNL d   1      45.762 -13.097  40.336  0.00  0.00     0.100 A 
ATOM     20  N   UNL d   1      45.257 -12.472  40.565  0.00  0.00    -0.300 N 
ATOM     21  C   UNL d   1      44.631 -12.247  40.055  0.00  0.00     0.100 A 
ATOM     22  C   UNL d   1      44.515 -12.643  39.327  0.00  0.00     0.101 A 
BRANCH  20  23
ATOM     23  C   UNL d   1      45.374 -12.081  41.285  0.00  0.00     0.080 C 
BRANCH  23  24
ATOM     24  C   UNL d   1      45.160 -12.451  42.005  0.00  0.00     0.018 A 
ATOM     25  C   UNL d   1      44.382 -12.395  42.275  0.00  0.00     0.002 A 
ATOM     26  C   UNL d   1      44.156 -12.758  42.991  0.00  0.00     0.000 A 
ATOM     27  C   UNL d   1      44.721 -13.182  43.436  0.00  0.00     0.000 A 
ATOM     28  C   UNL d   1      45.510 -13.238  43.160  0.00  0.00     0.000 A 
ATOM     29  C   UNL d   1      45.722 -12.870  42.445  0.00  0.00     0.002 A 
ENDBRANCH  23  24
ENDBRANCH  20  23
ENDBRANCH   4  17
TORSDOF 3
ENDMDL
