MODEL 1
REMARK VINA RESULT:       9.8      0.000      0.000
REMARK  3 active torsions:
REMARK  status: ('A' for Active; 'I' for Inactive)
REMARK    1  A    between atoms: C_2  and  N_1 
REMARK    2  A    between atoms: C_4  and  N_1 
REMARK    3  A    between atoms: C_5  and  C_2 
ROOT
ATOM      1  N   UNL d   1      13.930  11.952  -2.459  0.00  0.00    -0.184 N 
ATOM      2  O   UNL d   1      14.610  11.821  -2.903  0.00  0.00    -0.080 OA
ENDROOT
BRANCH   1   3
ATOM      3  C   UNL d   1      13.200  11.994  -2.828  0.00  0.00     0.108 C 
BRANCH   3   4
ATOM      4  C   UNL d   1      13.143  12.266  -3.607  0.00  0.00     0.020 A 
ATOM      5  C   UNL d   1      13.400  11.780  -4.229  0.00  0.00     0.004 A 
ATOM      6  C   UNL d   1      13.342  12.052  -5.006  0.00  0.00     0.030 A 
ATOM      7  C   UNL d   1      13.036  12.794  -5.164  0.00  0.00     0.140 A 
ATOM      8  C   UNL d   1      12.785  13.266  -4.541  0.00  0.00     0.030 A 
ATOM      9  F   UNL d   1      12.979  13.065  -5.938  0.00  0.00    -0.204 F 
ATOM     10  C   UNL d   1      12.838  13.004  -3.760  0.00  0.00     0.004 A 
ENDBRANCH   3   4
ENDBRANCH   1   3
BRANCH   1  11
ATOM     11  C   UNL d   1      13.990  12.042  -1.634  0.00  0.00     0.090 A 
ATOM     12  C   UNL d   1      13.390  11.779  -1.151  0.00  0.00     0.020 A 
ATOM     13  C   UNL d   1      13.455  11.871  -0.339  0.00  0.00     0.002 A 
ATOM     14  C   UNL d   1      14.128  12.228  -0.014  0.00  0.00     0.000 A 
ATOM     15  C   UNL d   1      14.732  12.492  -0.516  0.00  0.00     0.002 A 
ATOM     16  C   UNL d   1      14.668  12.401  -1.323  0.00  0.00     0.020 A 
ENDBRANCH   1  11
TORSDOF 3
ENDMDL
