MODEL 1
REMARK VINA RESULT:      54.1      0.000      0.000
REMARK  5 active torsions:
REMARK  status: ('A' for Active; 'I' for Inactive)
REMARK       I    between atoms: N_3  and  C_1 
REMARK    1  A    between atoms: C_6  and  C_1 
REMARK    2  A    between atoms: C_2  and  S_4 
REMARK    3  A    between atoms: C_7  and  N_3 
REMARK    4  A    between atoms: S_4  and  C_8 
REMARK    5  A    between atoms: C_15  and  C_6 
ROOT
ATOM      1  C   UNL d   1     -57.487 -99.052 -43.687  0.00  0.00     0.085 A 
ATOM      2  C   UNL d   1     -56.065 -99.604 -44.248  0.00  0.00     0.034 A 
ATOM      3  C   UNL d   1     -57.075 -99.624 -43.258  0.00  0.00     0.020 A 
ATOM      4  C   UNL d   1     -57.196 -98.756 -44.389  0.00  0.00     0.020 A 
ATOM      5  C   UNL d   1     -56.485 -99.028 -44.676  0.00  0.00     0.008 A 
ATOM      6  C   UNL d   1     -56.358 -99.900 -43.544  0.00  0.00     0.008 A 
ENDROOT
BRANCH   1   7
ATOM      7  N   UNL d   1     -58.209 -98.773 -43.400  0.00  0.00    -0.208 NA
ATOM      8  C   UNL d   1     -58.915 -99.026 -43.749  0.00  0.00     0.279 C 
ATOM      9  O   UNL d   1     -59.626 -98.756 -43.472  0.00  0.00    -0.265 OA
BRANCH   8  10
ATOM     10  C   UNL d   1     -58.888 -99.553 -44.375  0.00  0.00     0.062 C 
BRANCH  10  11
ATOM     11  C   UNL d   1     -59.023 -99.295 -45.123  0.00  0.00     0.005 A 
ATOM     12  C   UNL d   1     -58.390 -99.150 -45.640  0.00  0.00     0.000 A 
ATOM     13  C   UNL d   1     -58.528 -98.880 -46.424  0.00  0.00     0.000 A 
ATOM     14  C   UNL d   1     -59.318 -98.757 -46.682  0.00  0.00     0.000 A 
ATOM     15  C   UNL d   1     -59.959 -98.902 -46.163  0.00  0.00     0.000 A 
ATOM     16  C   UNL d   1     -59.805 -99.170 -45.387  0.00  0.00     0.000 A 
ENDBRANCH  10  11
ENDBRANCH   8  10
ENDBRANCH   1   7
BRANCH   2  17
ATOM     17  S   UNL d   1     -55.351 -99.877 -44.536  0.00  0.00    -0.028 SA
BRANCH  17  18
ATOM     18  C   UNL d   1     -54.992-100.536 -44.209  0.00  0.00     0.309 C 
ATOM     19  F   UNL d   1     -54.809-100.543 -43.415  0.00  0.00    -0.165 F 
ATOM     20  F   UNL d   1     -54.819-101.182 -44.665  0.00  0.00    -0.165 F 
ENDBRANCH  17  18
ENDBRANCH   2  17
TORSDOF 5
ENDMDL
