MODEL 1
REMARK VINA RESULT:      -8.7      0.000      0.000
REMARK  3 active torsions:
REMARK  status: ('A' for Active; 'I' for Inactive)
REMARK    1  A    between atoms: C_13  and  C_5 
REMARK       I    between atoms: C_7  and  N_12 
REMARK    2  A    between atoms: C_10  and  C_7 
REMARK    3  A    between atoms: N_12  and  C_15 
ROOT
ATOM      1  C   UNL d   1     -47.591  13.406  22.624  0.00  0.00     0.021 A 
ATOM      2  C   UNL d   1     -46.422  12.795  23.192  0.00  0.00     0.085 A 
ATOM      3  C   UNL d   1     -47.179  12.728  22.873  0.00  0.00     0.021 A 
ATOM      4  C   UNL d   1     -47.237  14.144  22.700  0.00  0.00     0.002 A 
ATOM      5  C   UNL d   1     -46.486  14.220  23.015  0.00  0.00     0.002 A 
ATOM      6  C   UNL d   1     -46.074  13.542  23.263  0.00  0.00     0.019 A 
ENDROOT
BRANCH   1   7
ATOM      7  C   UNL d   1     -48.348  13.325  22.307  0.00  0.00     0.102 A 
ATOM      8  N   UNL d   1     -48.998  13.570  22.764  0.00  0.00    -0.162 NA
ATOM      9  N   UNL d   1     -49.768  13.492  22.450  0.00  0.00    -0.189 N 
ATOM     10  C   UNL d   1     -49.882  13.173  21.689  0.00  0.00     0.187 A 
ATOM     11  C   UNL d   1     -50.498  13.679  22.760  0.00  0.00     0.224 A 
ATOM     12  N   UNL d   1     -50.677  13.174  21.555  0.00  0.00    -0.127 NA
ATOM     13  C   UNL d   1     -49.214  12.934  21.248  0.00  0.00     0.042 A 
ATOM     14  N   UNL d   1     -51.064  13.484  22.210  0.00  0.00    -0.124 NA
ATOM     15  C   UNL d   1     -48.450  13.012  21.562  0.00  0.00     0.024 A 
ENDBRANCH   1   7
BRANCH   2  16
ATOM     16  N   UNL d   1     -46.016  12.126  23.436  0.00  0.00    -0.206 NA
ATOM     17  C   UNL d   1     -45.327  11.903  23.051  0.00  0.00     0.302 C 
ATOM     18  O   UNL d   1     -45.037  12.347  22.416  0.00  0.00    -0.263 OA
BRANCH  17  19
ATOM     19  C   UNL d   1     -44.919  11.232  23.296  0.00  0.00     0.158 A 
ATOM     20  O   UNL d   1     -44.108  11.168  23.408  0.00  0.00    -0.300 OA
ATOM     21  C   UNL d   1     -43.939  10.402  23.654  0.00  0.00     0.123 A 
ATOM     22  C   UNL d   1     -44.656   9.982  23.697  0.00  0.00     0.029 A 
ATOM     23  C   UNL d   1     -45.258  10.494  23.476  0.00  0.00     0.032 A 
ENDBRANCH  17  19
ENDBRANCH   2  16
TORSDOF 3
ENDMDL
MODEL 2
REMARK VINA RESULT:      -8.6      1.723      4.871
REMARK  3 active torsions:
REMARK  status: ('A' for Active; 'I' for Inactive)
REMARK    1  A    between atoms: C_13  and  C_5 
REMARK       I    between atoms: C_7  and  N_12 
REMARK    2  A    between atoms: C_10  and  C_7 
REMARK    3  A    between atoms: N_12  and  C_15 
ROOT
ATOM      1  C   UNL d   1     -46.640  12.853  23.135  0.00  0.00     0.021 A 
ATOM      2  C   UNL d   1     -47.856  13.571  22.872  0.00  0.00     0.085 A 
ATOM      3  C   UNL d   1     -47.464  12.862  23.028  0.00  0.00     0.021 A 
ATOM      4  C   UNL d   1     -46.218  13.557  23.082  0.00  0.00     0.002 A 
ATOM      5  C   UNL d   1     -46.598  14.265  22.928  0.00  0.00     0.002 A 
ATOM      6  C   UNL d   1     -47.422  14.273  22.821  0.00  0.00     0.019 A 
ENDROOT
BRANCH   1   7
ATOM      7  C   UNL d   1     -46.260  12.138  23.291  0.00  0.00     0.102 A 
ATOM      8  N   UNL d   1     -45.436  12.095  23.186  0.00  0.00    -0.162 NA
ATOM      9  N   UNL d   1     -45.044  11.374  23.342  0.00  0.00    -0.189 N 
ATOM     10  C   UNL d   1     -45.473  10.708  23.599  0.00  0.00     0.187 A 
ATOM     11  C   UNL d   1     -44.258  11.166  23.291  0.00  0.00     0.224 A 
ATOM     12  N   UNL d   1     -44.938  10.113  23.698  0.00  0.00    -0.127 NA
ATOM     13  C   UNL d   1     -46.301  10.775  23.697  0.00  0.00     0.042 A 
ATOM     14  N   UNL d   1     -44.187  10.387  23.510  0.00  0.00    -0.124 NA
ATOM     15  C   UNL d   1     -46.688  11.492  23.542  0.00  0.00     0.024 A 
ENDBRANCH   1   7
BRANCH   2  16
ATOM     16  N   UNL d   1     -48.669  13.579  22.767  0.00  0.00    -0.206 NA
ATOM     17  C   UNL d   1     -48.982  13.590  22.008  0.00  0.00     0.302 C 
ATOM     18  O   UNL d   1     -48.485  13.593  21.348  0.00  0.00    -0.263 OA
BRANCH  17  19
ATOM     19  C   UNL d   1     -49.798  13.599  21.903  0.00  0.00     0.158 A 
ATOM     20  O   UNL d   1     -50.270  14.264  21.805  0.00  0.00    -0.300 OA
ATOM     21  C   UNL d   1     -51.050  14.019  21.719  0.00  0.00     0.123 A 
ATOM     22  C   UNL d   1     -51.064  13.188  21.763  0.00  0.00     0.029 A 
ATOM     23  C   UNL d   1     -50.293  12.931  21.877  0.00  0.00     0.032 A 
ENDBRANCH  17  19
ENDBRANCH   2  16
TORSDOF 3
ENDMDL
MODEL 3
REMARK VINA RESULT:      -7.7      1.545      2.167
REMARK  3 active torsions:
REMARK  status: ('A' for Active; 'I' for Inactive)
REMARK    1  A    between atoms: C_13  and  C_5 
REMARK       I    between atoms: C_7  and  N_12 
REMARK    2  A    between atoms: C_10  and  C_7 
REMARK    3  A    between atoms: N_12  and  C_15 
ROOT
ATOM      1  C   UNL d   1     -48.891  12.943  23.060  0.00  0.00     0.021 A 
ATOM      2  C   UNL d   1     -47.573  12.425  22.818  0.00  0.00     0.085 A 
ATOM      3  C   UNL d   1     -48.150  13.000  22.687  0.00  0.00     0.021 A 
ATOM      4  C   UNL d   1     -49.043  12.310  23.561  0.00  0.00     0.002 A 
ATOM      5  C   UNL d   1     -48.477  11.736  23.698  0.00  0.00     0.002 A 
ATOM      6  C   UNL d   1     -47.737  11.792  23.325  0.00  0.00     0.019 A 
ENDROOT
BRANCH   1   7
ATOM      7  C   UNL d   1     -49.459  13.524  22.920  0.00  0.00     0.102 A 
ATOM      8  N   UNL d   1     -49.404  14.242  23.337  0.00  0.00    -0.162 NA
ATOM      9  N   UNL d   1     -49.976  14.835  23.201  0.00  0.00    -0.189 N 
ATOM     10  C   UNL d   1     -50.592  14.710  22.655  0.00  0.00     0.187 A 
ATOM     11  C   UNL d   1     -50.066  15.580  23.519  0.00  0.00     0.224 A 
ATOM     12  N   UNL d   1     -51.040  15.380  22.655  0.00  0.00    -0.127 NA
ATOM     13  C   UNL d   1     -50.627  13.981  22.247  0.00  0.00     0.042 A 
ATOM     14  N   UNL d   1     -50.723  15.921  23.185  0.00  0.00    -0.124 NA
ATOM     15  C   UNL d   1     -50.058  13.393  22.383  0.00  0.00     0.024 A 
ENDBRANCH   1   7
BRANCH   2  16
ATOM     16  N   UNL d   1     -46.843  12.481  22.450  0.00  0.00    -0.206 NA
ATOM     17  C   UNL d   1     -46.196  12.765  22.868  0.00  0.00     0.302 C 
ATOM     18  O   UNL d   1     -46.273  12.996  23.658  0.00  0.00    -0.263 OA
BRANCH  17  19
ATOM     19  C   UNL d   1     -45.463  12.820  22.498  0.00  0.00     0.158 A 
ATOM     20  O   UNL d   1     -44.866  12.257  22.513  0.00  0.00    -0.300 OA
ATOM     21  C   UNL d   1     -44.232  12.539  22.073  0.00  0.00     0.123 A 
ATOM     22  C   UNL d   1     -44.437  13.290  21.778  0.00  0.00     0.029 A 
ATOM     23  C   UNL d   1     -45.195  13.462  22.042  0.00  0.00     0.032 A 
ENDBRANCH  17  19
ENDBRANCH   2  16
TORSDOF 3
ENDMDL
MODEL 4
REMARK VINA RESULT:      -7.2      2.225      5.027
REMARK  3 active torsions:
REMARK  status: ('A' for Active; 'I' for Inactive)
REMARK    1  A    between atoms: C_13  and  C_5 
REMARK       I    between atoms: C_7  and  N_12 
REMARK    2  A    between atoms: C_10  and  C_7 
REMARK    3  A    between atoms: N_12  and  C_15 
ROOT
ATOM      1  C   UNL d   1     -47.786  12.026  23.308  0.00  0.00     0.021 A 
ATOM      2  C   UNL d   1     -48.990  12.767  23.558  0.00  0.00     0.085 A 
ATOM      3  C   UNL d   1     -48.173  12.748  23.451  0.00  0.00     0.021 A 
ATOM      4  C   UNL d   1     -48.225  11.332  23.275  0.00  0.00     0.002 A 
ATOM      5  C   UNL d   1     -49.036  11.342  23.380  0.00  0.00     0.002 A 
ATOM      6  C   UNL d   1     -49.423  12.063  23.522  0.00  0.00     0.019 A 
ENDROOT
BRANCH   1   7
ATOM      7  C   UNL d   1     -46.968  12.020  23.203  0.00  0.00     0.102 A 
ATOM      8  N   UNL d   1     -46.644  12.476  22.587  0.00  0.00    -0.162 NA
ATOM      9  N   UNL d   1     -45.816  12.476  22.475  0.00  0.00    -0.189 N 
ATOM     10  C   UNL d   1     -45.323  12.025  22.971  0.00  0.00     0.187 A 
ATOM     11  C   UNL d   1     -45.347  12.859  21.930  0.00  0.00     0.224 A 
ATOM     12  N   UNL d   1     -44.568  12.145  22.717  0.00  0.00    -0.127 NA
ATOM     13  C   UNL d   1     -45.671  11.574  23.584  0.00  0.00     0.042 A 
ATOM     14  N   UNL d   1     -44.573  12.658  22.075  0.00  0.00    -0.124 NA
ATOM     15  C   UNL d   1     -46.493  11.576  23.695  0.00  0.00     0.024 A 
ENDBRANCH   1   7
BRANCH   2  16
ATOM     16  N   UNL d   1     -49.372  13.479  23.698  0.00  0.00    -0.206 NA
ATOM     17  C   UNL d   1     -49.737  13.876  23.079  0.00  0.00     0.302 C 
ATOM     18  O   UNL d   1     -49.723  13.564  22.313  0.00  0.00    -0.263 OA
BRANCH  17  19
ATOM     19  C   UNL d   1     -50.120  14.590  23.220  0.00  0.00     0.158 A 
ATOM     20  O   UNL d   1     -49.798  15.253  23.582  0.00  0.00    -0.300 OA
ATOM     21  C   UNL d   1     -50.373  15.839  23.609  0.00  0.00     0.123 A 
ATOM     22  C   UNL d   1     -51.064  15.538  23.258  0.00  0.00     0.029 A 
ATOM     23  C   UNL d   1     -50.907  14.769  23.019  0.00  0.00     0.032 A 
ENDBRANCH  17  19
ENDBRANCH   2  16
TORSDOF 3
ENDMDL
MODEL 5
REMARK VINA RESULT:      -7.1      1.294      1.762
REMARK  3 active torsions:
REMARK  status: ('A' for Active; 'I' for Inactive)
REMARK    1  A    between atoms: C_13  and  C_5 
REMARK       I    between atoms: C_7  and  N_12 
REMARK    2  A    between atoms: C_10  and  C_7 
REMARK    3  A    between atoms: N_12  and  C_15 
ROOT
ATOM      1  C   UNL d   1     -48.025  12.566  23.188  0.00  0.00     0.021 A 
ATOM      2  C   UNL d   1     -46.902  11.707  23.436  0.00  0.00     0.085 A 
ATOM      3  C   UNL d   1     -47.204  12.444  23.222  0.00  0.00     0.021 A 
ATOM      4  C   UNL d   1     -48.534  11.946  23.369  0.00  0.00     0.002 A 
ATOM      5  C   UNL d   1     -48.243  11.212  23.582  0.00  0.00     0.002 A 
ATOM      6  C   UNL d   1     -47.422  11.090  23.617  0.00  0.00     0.019 A 
ENDROOT
BRANCH   1   7
ATOM      7  C   UNL d   1     -48.314  13.308  22.973  0.00  0.00     0.102 A 
ATOM      8  N   UNL d   1     -48.891  13.665  23.455  0.00  0.00    -0.162 NA
ATOM      9  N   UNL d   1     -49.189  14.416  23.243  0.00  0.00    -0.189 N 
ATOM     10  C   UNL d   1     -48.912  14.801  22.560  0.00  0.00     0.187 A 
ATOM     11  C   UNL d   1     -49.745  14.894  23.599  0.00  0.00     0.224 A 
ATOM     12  N   UNL d   1     -49.306  15.504  22.516  0.00  0.00    -0.127 NA
ATOM     13  C   UNL d   1     -48.333  14.424  22.090  0.00  0.00     0.042 A 
ATOM     14  N   UNL d   1     -49.821  15.569  23.153  0.00  0.00    -0.124 NA
ATOM     15  C   UNL d   1     -48.038  13.678  22.301  0.00  0.00     0.024 A 
ENDBRANCH   1   7
BRANCH   2  16
ATOM     16  N   UNL d   1     -46.091  11.587  23.470  0.00  0.00    -0.206 NA
ATOM     17  C   UNL d   1     -45.791  10.823  23.446  0.00  0.00     0.302 C 
ATOM     18  O   UNL d   1     -46.298  10.173  23.387  0.00  0.00    -0.263 OA
BRANCH  17  19
ATOM     19  C   UNL d   1     -44.978  10.702  23.480  0.00  0.00     0.158 A 
ATOM     20  O   UNL d   1     -44.395  11.254  23.306  0.00  0.00    -0.300 OA
ATOM     21  C   UNL d   1     -43.661  10.900  23.413  0.00  0.00     0.123 A 
ATOM     22  C   UNL d   1     -43.789  10.114  23.657  0.00  0.00     0.029 A 
ATOM     23  C   UNL d   1     -44.599   9.995  23.698  0.00  0.00     0.032 A 
ENDBRANCH  17  19
ENDBRANCH   2  16
TORSDOF 3
ENDMDL
MODEL 6
REMARK VINA RESULT:      -6.7      8.005      8.885
REMARK  3 active torsions:
REMARK  status: ('A' for Active; 'I' for Inactive)
REMARK    1  A    between atoms: C_13  and  C_5 
REMARK       I    between atoms: C_7  and  N_12 
REMARK    2  A    between atoms: C_10  and  C_7 
REMARK    3  A    between atoms: N_12  and  C_15 
ROOT
ATOM      1  C   UNL d   1     -40.236  15.382  19.603  0.00  0.00     0.021 A 
ATOM      2  C   UNL d   1     -39.812  15.164  20.958  0.00  0.00     0.085 A 
ATOM      3  C   UNL d   1     -39.699  15.058  20.148  0.00  0.00     0.021 A 
ATOM      4  C   UNL d   1     -40.881  15.810  19.878  0.00  0.00     0.002 A 
ATOM      5  C   UNL d   1     -41.002  15.922  20.679  0.00  0.00     0.002 A 
ATOM      6  C   UNL d   1     -40.465  15.597  21.224  0.00  0.00     0.019 A 
ENDROOT
BRANCH   1   7
ATOM      7  C   UNL d   1     -40.111  15.268  18.796  0.00  0.00     0.102 A 
ATOM      8  N   UNL d   1     -39.503  15.697  18.424  0.00  0.00    -0.162 NA
ATOM      9  N   UNL d   1     -39.371  15.587  17.607  0.00  0.00    -0.189 N 
ATOM     10  C   UNL d   1     -39.840  15.055  17.171  0.00  0.00     0.187 A 
ATOM     11  C   UNL d   1     -38.828  15.922  17.099  0.00  0.00     0.224 A 
ATOM     12  N   UNL d   1     -39.572  15.080  16.411  0.00  0.00    -0.127 NA
ATOM     13  C   UNL d   1     -40.445  14.635  17.566  0.00  0.00     0.042 A 
ATOM     14  N   UNL d   1     -38.948  15.611  16.358  0.00  0.00    -0.124 NA
ATOM     15  C   UNL d   1     -40.576  14.745  18.378  0.00  0.00     0.024 A 
ENDBRANCH   1   7
BRANCH   2  16
ATOM     16  N   UNL d   1     -39.283  14.844  21.496  0.00  0.00    -0.206 NA
ATOM     17  C   UNL d   1     -39.448  14.124  21.852  0.00  0.00     0.302 C 
ATOM     18  O   UNL d   1     -40.145  13.717  21.675  0.00  0.00    -0.263 OA
BRANCH  17  19
ATOM     19  C   UNL d   1     -38.916  13.803  22.392  0.00  0.00     0.158 A 
ATOM     20  O   UNL d   1     -38.846  14.004  23.185  0.00  0.00    -0.300 OA
ATOM     21  C   UNL d   1     -38.247  13.548  23.516  0.00  0.00     0.123 A 
ATOM     22  C   UNL d   1     -37.940  13.056  22.920  0.00  0.00     0.029 A 
ATOM     23  C   UNL d   1     -38.353  13.213  22.229  0.00  0.00     0.032 A 
ENDBRANCH  17  19
ENDBRANCH   2  16
TORSDOF 3
ENDMDL
MODEL 7
REMARK VINA RESULT:      -6.5      7.963      9.333
REMARK  3 active torsions:
REMARK  status: ('A' for Active; 'I' for Inactive)
REMARK    1  A    between atoms: C_13  and  C_5 
REMARK       I    between atoms: C_7  and  N_12 
REMARK    2  A    between atoms: C_10  and  C_7 
REMARK    3  A    between atoms: N_12  and  C_15 
ROOT
ATOM      1  C   UNL d   1     -39.993  15.452  21.007  0.00  0.00     0.021 A 
ATOM      2  C   UNL d   1     -40.098  15.456  19.575  0.00  0.00     0.085 A 
ATOM      3  C   UNL d   1     -39.660  15.311  20.259  0.00  0.00     0.021 A 
ATOM      4  C   UNL d   1     -40.762  15.737  21.060  0.00  0.00     0.002 A 
ATOM      5  C   UNL d   1     -41.204  15.884  20.388  0.00  0.00     0.002 A 
ATOM      6  C   UNL d   1     -40.871  15.743  19.639  0.00  0.00     0.019 A 
ENDROOT
BRANCH   1   7
ATOM      7  C   UNL d   1     -39.544  15.304  21.683  0.00  0.00     0.102 A 
ATOM      8  N   UNL d   1     -39.472  14.518  21.947  0.00  0.00    -0.162 NA
ATOM      9  N   UNL d   1     -39.019  14.359  22.630  0.00  0.00    -0.189 N 
ATOM     10  C   UNL d   1     -38.647  14.979  23.042  0.00  0.00     0.187 A 
ATOM     11  C   UNL d   1     -38.851  13.660  23.015  0.00  0.00     0.224 A 
ATOM     12  N   UNL d   1     -38.261  14.643  23.666  0.00  0.00    -0.127 NA
ATOM     13  C   UNL d   1     -38.733  15.761  22.759  0.00  0.00     0.042 A 
ATOM     14  N   UNL d   1     -38.382  13.831  23.656  0.00  0.00    -0.124 NA
ATOM     15  C   UNL d   1     -39.183  15.917  22.080  0.00  0.00     0.024 A 
ENDBRANCH   1   7
BRANCH   2  16
ATOM     16  N   UNL d   1     -39.770  15.316  18.837  0.00  0.00    -0.206 NA
ATOM     17  C   UNL d   1     -39.972  14.638  18.422  0.00  0.00     0.302 C 
ATOM     18  O   UNL d   1     -40.504  14.092  18.741  0.00  0.00    -0.263 OA
BRANCH  17  19
ATOM     19  C   UNL d   1     -39.642  14.498  17.681  0.00  0.00     0.158 A 
ATOM     20  O   UNL d   1     -39.672  15.000  17.032  0.00  0.00    -0.300 OA
ATOM     21  C   UNL d   1     -39.273  14.643  16.409  0.00  0.00     0.123 A 
ATOM     22  C   UNL d   1     -38.990  13.906  16.673  0.00  0.00     0.029 A 
ATOM     23  C   UNL d   1     -39.219  13.819  17.457  0.00  0.00     0.032 A 
ENDBRANCH  17  19
ENDBRANCH   2  16
TORSDOF 3
ENDMDL
MODEL 8
REMARK VINA RESULT:      -6.0      8.725      9.770
REMARK  3 active torsions:
REMARK  status: ('A' for Active; 'I' for Inactive)
REMARK    1  A    between atoms: C_13  and  C_5 
REMARK       I    between atoms: C_7  and  N_12 
REMARK    2  A    between atoms: C_10  and  C_7 
REMARK    3  A    between atoms: N_12  and  C_15 
ROOT
ATOM      1  C   UNL d   1     -38.512  14.035  20.477  0.00  0.00     0.021 A 
ATOM      2  C   UNL d   1     -38.907  14.391  19.143  0.00  0.00     0.085 A 
ATOM      3  C   UNL d   1     -38.957  14.507  19.958  0.00  0.00     0.021 A 
ATOM      4  C   UNL d   1     -38.020  13.451  20.171  0.00  0.00     0.002 A 
ATOM      5  C   UNL d   1     -37.964  13.329  19.365  0.00  0.00     0.002 A 
ATOM      6  C   UNL d   1     -38.409  13.801  18.846  0.00  0.00     0.019 A 
ENDROOT
BRANCH   1   7
ATOM      7  C   UNL d   1     -38.572  14.161  21.290  0.00  0.00     0.102 A 
ATOM      8  N   UNL d   1     -38.429  14.926  21.584  0.00  0.00    -0.162 NA
ATOM      9  N   UNL d   1     -38.488  15.061  22.406  0.00  0.00    -0.189 N 
ATOM     10  C   UNL d   1     -38.686  14.440  22.923  0.00  0.00     0.187 A 
ATOM     11  C   UNL d   1     -38.381  15.737  22.850  0.00  0.00     0.224 A 
ATOM     12  N   UNL d   1     -38.696  14.752  23.666  0.00  0.00    -0.127 NA
ATOM     13  C   UNL d   1     -38.826  13.680  22.605  0.00  0.00     0.042 A 
ATOM     14  N   UNL d   1     -38.509  15.551  23.630  0.00  0.00    -0.124 NA
ATOM     15  C   UNL d   1     -38.767  13.546  21.788  0.00  0.00     0.024 A 
ENDBRANCH   1   7
BRANCH   2  16
ATOM     16  N   UNL d   1     -39.346  14.856  18.631  0.00  0.00    -0.206 NA
ATOM     17  C   UNL d   1     -40.018  14.549  18.274  0.00  0.00     0.302 C 
ATOM     18  O   UNL d   1     -40.257  13.772  18.426  0.00  0.00    -0.263 OA
BRANCH  17  19
ATOM     19  C   UNL d   1     -40.459  15.016  17.760  0.00  0.00     0.158 A 
ATOM     20  O   UNL d   1     -41.003  15.593  17.972  0.00  0.00    -0.300 OA
ATOM     21  C   UNL d   1     -41.313  15.922  17.285  0.00  0.00     0.123 A 
ATOM     22  C   UNL d   1     -40.957  15.544  16.635  0.00  0.00     0.029 A 
ATOM     23  C   UNL d   1     -40.431  14.986  16.929  0.00  0.00     0.032 A 
ENDBRANCH  17  19
ENDBRANCH   2  16
TORSDOF 3
ENDMDL
MODEL 9
REMARK VINA RESULT:      -5.8      1.648      2.163
REMARK  3 active torsions:
REMARK  status: ('A' for Active; 'I' for Inactive)
REMARK    1  A    between atoms: C_13  and  C_5 
REMARK       I    between atoms: C_7  and  N_12 
REMARK    2  A    between atoms: C_10  and  C_7 
REMARK    3  A    between atoms: N_12  and  C_15 
ROOT
ATOM      1  C   UNL d   1     -47.303  13.650  22.878  0.00  0.00     0.021 A 
ATOM      2  C   UNL d   1     -45.992  13.188  22.518  0.00  0.00     0.085 A 
ATOM      3  C   UNL d   1     -46.616  13.717  22.415  0.00  0.00     0.021 A 
ATOM      4  C   UNL d   1     -47.355  13.051  23.439  0.00  0.00     0.002 A 
ATOM      5  C   UNL d   1     -46.742  12.522  23.548  0.00  0.00     0.002 A 
ATOM      6  C   UNL d   1     -46.055  12.589  23.086  0.00  0.00     0.019 A 
ENDROOT
BRANCH   1   7
ATOM      7  C   UNL d   1     -47.920  14.185  22.765  0.00  0.00     0.102 A 
ATOM      8  N   UNL d   1     -48.702  13.904  22.807  0.00  0.00    -0.162 NA
ATOM      9  N   UNL d   1     -49.332  14.441  22.694  0.00  0.00    -0.189 N 
ATOM     10  C   UNL d   1     -49.180  15.244  22.541  0.00  0.00     0.187 A 
ATOM     11  C   UNL d   1     -50.140  14.332  22.702  0.00  0.00     0.224 A 
ATOM     12  N   UNL d   1     -49.897  15.604  22.461  0.00  0.00    -0.127 NA
ATOM     13  C   UNL d   1     -48.386  15.504  22.504  0.00  0.00     0.042 A 
ATOM     14  N   UNL d   1     -50.494  15.049  22.558  0.00  0.00    -0.124 NA
ATOM     15  C   UNL d   1     -47.761  14.970  22.616  0.00  0.00     0.024 A 
ENDBRANCH   1   7
BRANCH   2  16
ATOM     16  N   UNL d   1     -45.314  13.254  22.061  0.00  0.00    -0.206 NA
ATOM     17  C   UNL d   1     -44.691  12.733  22.178  0.00  0.00     0.302 C 
ATOM     18  O   UNL d   1     -44.740  12.140  22.752  0.00  0.00    -0.263 OA
BRANCH  17  19
ATOM     19  C   UNL d   1     -44.011  12.799  21.719  0.00  0.00     0.158 A 
ATOM     20  O   UNL d   1     -43.947  12.640  20.916  0.00  0.00    -0.300 OA
ATOM     21  C   UNL d   1     -43.171  12.779  20.685  0.00  0.00     0.123 A 
ATOM     22  C   UNL d   1     -42.744  13.029  21.355  0.00  0.00     0.029 A 
ATOM     23  C   UNL d   1     -43.263  13.041  21.990  0.00  0.00     0.032 A 
ENDBRANCH  17  19
ENDBRANCH   2  16
TORSDOF 3
ENDMDL
