MODEL 1
REMARK VINA RESULT:      -6.9      0.000      0.000
REMARK  5 active torsions:
REMARK  status: ('A' for Active; 'I' for Inactive)
REMARK    1  A    between atoms: N_7  and  C_1 
REMARK    2  A    between atoms: C_6  and  N_2 
REMARK    3  A    between atoms: C_11  and  C_6 
REMARK    4  A    between atoms: C_12  and  N_7 
REMARK    5  A    between atoms: C_13  and  C_12 
ROOT
ATOM      1  C   UNL d   1     -47.911  12.912  23.131  0.00  0.00     0.735 A 
ATOM      2  N   UNL d   1     -48.722  13.066  23.212  0.00  0.00    -0.138 N 
ATOM      3  N   UNL d   1     -47.534  13.606  22.877  0.00  0.00    -0.059 NA
ATOM      4  C   UNL d   1     -48.850  13.856  23.008  0.00  0.00     0.100 A 
ATOM      5  C   UNL d   1     -48.113  14.187  22.801  0.00  0.00     0.116 A 
ATOM      6  C   UNL d   1     -49.532  14.320  22.982  0.00  0.00     0.020 A 
ATOM      7  C   UNL d   1     -48.075  14.981  22.571  0.00  0.00     0.021 A 
ATOM      8  C   UNL d   1     -49.487  15.107  22.752  0.00  0.00     0.002 A 
ATOM      9  C   UNL d   1     -48.756  15.443  22.545  0.00  0.00     0.002 A 
ENDROOT
BRANCH   1  10
ATOM     10  N   UNL d   1     -47.538  12.190  23.278  0.00  0.00    -0.056 NA
BRANCH  10  11
ATOM     11  C   UNL d   1     -46.723  12.156  23.395  0.00  0.00     0.163 C 
BRANCH  11  12
ATOM     12  C   UNL d   1     -46.358  11.455  23.621  0.00  0.00     0.255 C 
ATOM     13  O   UNL d   1     -45.538  11.418  23.697  0.00  0.00    -0.281 OA
ENDBRANCH  11  12
ENDBRANCH  10  11
ENDBRANCH   1  10
BRANCH   2  14
ATOM     14  C   UNL d   1     -49.295  12.526  23.453  0.00  0.00     0.098 C 
BRANCH  14  15
ATOM     15  C   UNL d   1     -49.792  12.172  22.889  0.00  0.00     0.018 C 
ATOM     16  C   UNL d   1     -49.473  11.801  22.231  0.00  0.00     0.002 C 
ATOM     17  C   UNL d   1     -50.611  12.195  22.995  0.00  0.00     0.002 C 
ENDBRANCH  14  15
ENDBRANCH   2  14
TORSDOF 5
ENDMDL
MODEL 2
REMARK VINA RESULT:      -6.8      1.961      3.033
REMARK  5 active torsions:
REMARK  status: ('A' for Active; 'I' for Inactive)
REMARK    1  A    between atoms: N_7  and  C_1 
REMARK    2  A    between atoms: C_6  and  N_2 
REMARK    3  A    between atoms: C_11  and  C_6 
REMARK    4  A    between atoms: C_12  and  N_7 
REMARK    5  A    between atoms: C_13  and  C_12 
ROOT
ATOM      1  C   UNL d   1     -48.650  14.189  22.990  0.00  0.00     0.735 A 
ATOM      2  N   UNL d   1     -48.399  13.403  23.072  0.00  0.00    -0.138 N 
ATOM      3  N   UNL d   1     -47.988  14.663  22.832  0.00  0.00    -0.059 NA
ATOM      4  C   UNL d   1     -47.580  13.387  22.964  0.00  0.00     0.100 A 
ATOM      5  C   UNL d   1     -47.330  14.169  22.816  0.00  0.00     0.116 A 
ATOM      6  C   UNL d   1     -47.029  12.773  22.979  0.00  0.00     0.020 A 
ATOM      7  C   UNL d   1     -46.526  14.319  22.686  0.00  0.00     0.021 A 
ATOM      8  C   UNL d   1     -46.233  12.930  22.849  0.00  0.00     0.002 A 
ATOM      9  C   UNL d   1     -45.976  13.705  22.702  0.00  0.00     0.002 A 
ENDROOT
BRANCH   1  10
ATOM     10  N   UNL d   1     -49.428  14.459  23.055  0.00  0.00    -0.056 NA
BRANCH  10  11
ATOM     11  C   UNL d   1     -49.585  15.258  23.179  0.00  0.00     0.163 C 
BRANCH  11  12
ATOM     12  C   UNL d   1     -50.303  15.503  23.495  0.00  0.00     0.255 C 
ATOM     13  O   UNL d   1     -50.842  15.919  23.032  0.00  0.00    -0.281 OA
ENDBRANCH  11  12
ENDBRANCH  10  11
ENDBRANCH   1  10
BRANCH   2  14
ATOM     14  C   UNL d   1     -48.882  12.756  23.231  0.00  0.00     0.098 C 
BRANCH  14  15
ATOM     15  C   UNL d   1     -49.097  12.239  22.617  0.00  0.00     0.018 C 
ATOM     16  C   UNL d   1     -49.537  12.512  21.981  0.00  0.00     0.002 C 
ATOM     17  C   UNL d   1     -48.865  11.446  22.650  0.00  0.00     0.002 C 
ENDBRANCH  14  15
ENDBRANCH   2  14
TORSDOF 5
ENDMDL
MODEL 3
REMARK VINA RESULT:      -6.8      1.035      1.216
REMARK  5 active torsions:
REMARK  status: ('A' for Active; 'I' for Inactive)
REMARK    1  A    between atoms: N_7  and  C_1 
REMARK    2  A    between atoms: C_6  and  N_2 
REMARK    3  A    between atoms: C_11  and  C_6 
REMARK    4  A    between atoms: C_12  and  N_7 
REMARK    5  A    between atoms: C_13  and  C_12 
ROOT
ATOM      1  C   UNL d   1     -48.106  13.744  22.832  0.00  0.00     0.735 A 
ATOM      2  N   UNL d   1     -48.814  13.449  23.147  0.00  0.00    -0.138 N 
ATOM      3  N   UNL d   1     -48.190  14.561  22.709  0.00  0.00    -0.059 NA
ATOM      4  C   UNL d   1     -49.341  14.083  23.220  0.00  0.00     0.100 A 
ATOM      5  C   UNL d   1     -48.950  14.768  22.948  0.00  0.00     0.116 A 
ATOM      6  C   UNL d   1     -50.117  14.131  23.494  0.00  0.00     0.020 A 
ATOM      7  C   UNL d   1     -49.351  15.492  22.958  0.00  0.00     0.021 A 
ATOM      8  C   UNL d   1     -50.508  14.854  23.501  0.00  0.00     0.002 A 
ATOM      9  C   UNL d   1     -50.126  15.540  23.232  0.00  0.00     0.002 A 
ENDROOT
BRANCH   1  10
ATOM     10  N   UNL d   1     -47.427  13.303  22.668  0.00  0.00    -0.056 NA
BRANCH  10  11
ATOM     11  C   UNL d   1     -46.682  13.651  22.701  0.00  0.00     0.163 C 
BRANCH  11  12
ATOM     12  C   UNL d   1     -46.023  13.271  22.390  0.00  0.00     0.255 C 
ATOM     13  O   UNL d   1     -45.291  13.336  22.760  0.00  0.00    -0.281 OA
ENDBRANCH  11  12
ENDBRANCH  10  11
ENDBRANCH   1  10
BRANCH   2  14
ATOM     14  C   UNL d   1     -48.964  12.666  23.349  0.00  0.00     0.098 C 
BRANCH  14  15
ATOM     15  C   UNL d   1     -49.424  12.190  22.847  0.00  0.00     0.018 C 
ATOM     16  C   UNL d   1     -49.185  12.050  22.075  0.00  0.00     0.002 C 
ATOM     17  C   UNL d   1     -50.126  11.857  23.130  0.00  0.00     0.002 C 
ENDBRANCH  14  15
ENDBRANCH   2  14
TORSDOF 5
ENDMDL
MODEL 4
REMARK VINA RESULT:      -6.6      1.049      2.429
REMARK  5 active torsions:
REMARK  status: ('A' for Active; 'I' for Inactive)
REMARK    1  A    between atoms: N_7  and  C_1 
REMARK    2  A    between atoms: C_6  and  N_2 
REMARK    3  A    between atoms: C_11  and  C_6 
REMARK    4  A    between atoms: C_12  and  N_7 
REMARK    5  A    between atoms: C_13  and  C_12 
ROOT
ATOM      1  C   UNL d   1     -47.927  13.171  22.807  0.00  0.00     0.735 A 
ATOM      2  N   UNL d   1     -48.697  13.357  22.562  0.00  0.00    -0.138 N 
ATOM      3  N   UNL d   1     -47.956  12.486  23.274  0.00  0.00    -0.059 NA
ATOM      4  C   UNL d   1     -49.206  12.786  22.877  0.00  0.00     0.100 A 
ATOM      5  C   UNL d   1     -48.743  12.250  23.317  0.00  0.00     0.116 A 
ATOM      6  C   UNL d   1     -50.023  12.681  22.826  0.00  0.00     0.020 A 
ATOM      7  C   UNL d   1     -49.112  11.614  23.698  0.00  0.00     0.021 A 
ATOM      8  C   UNL d   1     -50.382  12.047  23.207  0.00  0.00     0.002 A 
ATOM      9  C   UNL d   1     -49.927  11.509  23.646  0.00  0.00     0.002 A 
ENDROOT
BRANCH   1  10
ATOM     10  N   UNL d   1     -47.244  13.595  22.619  0.00  0.00    -0.056 NA
BRANCH  10  11
ATOM     11  C   UNL d   1     -46.504  13.235  22.655  0.00  0.00     0.163 C 
BRANCH  11  12
ATOM     12  C   UNL d   1     -45.815  13.674  22.561  0.00  0.00     0.255 C 
ATOM     13  O   UNL d   1     -45.125  13.313  22.293  0.00  0.00    -0.281 OA
ENDBRANCH  11  12
ENDBRANCH  10  11
ENDBRANCH   1  10
BRANCH   2  14
ATOM     14  C   UNL d   1     -48.914  13.995  22.090  0.00  0.00     0.098 C 
BRANCH  14  15
ATOM     15  C   UNL d   1     -49.255  14.669  22.437  0.00  0.00     0.018 C 
ATOM     16  C   UNL d   1     -48.817  15.139  22.946  0.00  0.00     0.002 C 
ATOM     17  C   UNL d   1     -50.040  14.863  22.266  0.00  0.00     0.002 C 
ENDBRANCH  14  15
ENDBRANCH   2  14
TORSDOF 5
ENDMDL
MODEL 5
REMARK VINA RESULT:      -6.4      1.524      2.809
REMARK  5 active torsions:
REMARK  status: ('A' for Active; 'I' for Inactive)
REMARK    1  A    between atoms: N_7  and  C_1 
REMARK    2  A    between atoms: C_6  and  N_2 
REMARK    3  A    between atoms: C_11  and  C_6 
REMARK    4  A    between atoms: C_12  and  N_7 
REMARK    5  A    between atoms: C_13  and  C_12 
ROOT
ATOM      1  C   UNL d   1     -48.530  12.965  23.024  0.00  0.00     0.735 A 
ATOM      2  N   UNL d   1     -48.254  13.747  23.023  0.00  0.00    -0.138 N 
ATOM      3  N   UNL d   1     -47.882  12.456  22.919  0.00  0.00    -0.059 NA
ATOM      4  C   UNL d   1     -47.435  13.726  22.918  0.00  0.00     0.100 A 
ATOM      5  C   UNL d   1     -47.209  12.926  22.855  0.00  0.00     0.116 A 
ATOM      6  C   UNL d   1     -46.865  14.321  22.872  0.00  0.00     0.020 A 
ATOM      7  C   UNL d   1     -46.410  12.737  22.745  0.00  0.00     0.021 A 
ATOM      8  C   UNL d   1     -46.074  14.126  22.763  0.00  0.00     0.002 A 
ATOM      9  C   UNL d   1     -45.841  13.332  22.699  0.00  0.00     0.002 A 
ENDROOT
BRANCH   1  10
ATOM     10  N   UNL d   1     -49.316  12.728  23.113  0.00  0.00    -0.056 NA
BRANCH  10  11
ATOM     11  C   UNL d   1     -49.497  11.972  23.384  0.00  0.00     0.163 C 
BRANCH  11  12
ATOM     12  C   UNL d   1     -50.278  11.735  23.487  0.00  0.00     0.255 C 
ATOM     13  O   UNL d   1     -50.454  10.959  23.696  0.00  0.00    -0.281 OA
ENDBRANCH  11  12
ENDBRANCH  10  11
ENDBRANCH   1  10
BRANCH   2  14
ATOM     14  C   UNL d   1     -48.716  14.422  23.111  0.00  0.00     0.098 C 
BRANCH  14  15
ATOM     15  C   UNL d   1     -48.949  14.854  22.441  0.00  0.00     0.018 C 
ATOM     16  C   UNL d   1     -49.425  14.508  21.870  0.00  0.00     0.002 C 
ATOM     17  C   UNL d   1     -48.698  15.637  22.352  0.00  0.00     0.002 C 
ENDBRANCH  14  15
ENDBRANCH   2  14
TORSDOF 5
ENDMDL
MODEL 6
REMARK VINA RESULT:      -6.1      0.913      2.410
REMARK  5 active torsions:
REMARK  status: ('A' for Active; 'I' for Inactive)
REMARK    1  A    between atoms: N_7  and  C_1 
REMARK    2  A    between atoms: C_6  and  N_2 
REMARK    3  A    between atoms: C_11  and  C_6 
REMARK    4  A    between atoms: C_12  and  N_7 
REMARK    5  A    between atoms: C_13  and  C_12 
ROOT
ATOM      1  C   UNL d   1     -47.643  11.984  23.298  0.00  0.00     0.735 A 
ATOM      2  N   UNL d   1     -48.032  12.546  22.829  0.00  0.00    -0.138 N 
ATOM      3  N   UNL d   1     -48.212  11.516  23.679  0.00  0.00    -0.059 NA
ATOM      4  C   UNL d   1     -48.846  12.428  22.918  0.00  0.00     0.100 A 
ATOM      5  C   UNL d   1     -48.952  11.790  23.444  0.00  0.00     0.116 A 
ATOM      6  C   UNL d   1     -49.501  12.811  22.594  0.00  0.00     0.020 A 
ATOM      7  C   UNL d   1     -49.720  11.548  23.637  0.00  0.00     0.021 A 
ATOM      8  C   UNL d   1     -50.260  12.565  22.790  0.00  0.00     0.002 A 
ATOM      9  C   UNL d   1     -50.374  11.931  23.314  0.00  0.00     0.002 A 
ENDROOT
BRANCH   1  10
ATOM     10  N   UNL d   1     -46.824  11.900  23.375  0.00  0.00    -0.056 NA
BRANCH  10  11
ATOM     11  C   UNL d   1     -46.501  11.211  23.689  0.00  0.00     0.163 C 
BRANCH  11  12
ATOM     12  C   UNL d   1     -45.754  10.954  23.464  0.00  0.00     0.255 C 
ATOM     13  O   UNL d   1     -45.083  11.370  23.698  0.00  0.00    -0.281 OA
ENDBRANCH  11  12
ENDBRANCH  10  11
ENDBRANCH   1  10
BRANCH   2  14
ATOM     14  C   UNL d   1     -47.672  13.117  22.359  0.00  0.00     0.098 C 
BRANCH  14  15
ATOM     15  C   UNL d   1     -47.529  13.876  22.667  0.00  0.00     0.018 C 
ATOM     16  C   UNL d   1     -48.125  14.439  22.673  0.00  0.00     0.002 C 
ATOM     17  C   UNL d   1     -46.782  14.060  22.969  0.00  0.00     0.002 C 
ENDBRANCH  14  15
ENDBRANCH   2  14
TORSDOF 5
ENDMDL
MODEL 7
REMARK VINA RESULT:      -5.6      9.204      9.967
REMARK  5 active torsions:
REMARK  status: ('A' for Active; 'I' for Inactive)
REMARK    1  A    between atoms: N_7  and  C_1 
REMARK    2  A    between atoms: C_6  and  N_2 
REMARK    3  A    between atoms: C_11  and  C_6 
REMARK    4  A    between atoms: C_12  and  N_7 
REMARK    5  A    between atoms: C_13  and  C_12 
ROOT
ATOM      1  C   UNL d   1     -40.808  15.292  17.789  0.00  0.00     0.735 A 
ATOM      2  N   UNL d   1     -40.405  14.657  18.138  0.00  0.00    -0.138 N 
ATOM      3  N   UNL d   1     -40.938  15.872  18.368  0.00  0.00    -0.059 NA
ATOM      4  C   UNL d   1     -40.285  14.841  18.935  0.00  0.00     0.100 A 
ATOM      5  C   UNL d   1     -40.616  15.594  19.072  0.00  0.00     0.116 A 
ATOM      6  C   UNL d   1     -39.921  14.431  19.551  0.00  0.00     0.020 A 
ATOM      7  C   UNL d   1     -40.576  15.922  19.832  0.00  0.00     0.021 A 
ATOM      8  C   UNL d   1     -39.885  14.763  20.302  0.00  0.00     0.002 A 
ATOM      9  C   UNL d   1     -40.213  15.511  20.447  0.00  0.00     0.002 A 
ENDROOT
BRANCH   1  10
ATOM     10  N   UNL d   1     -41.041  15.343  16.999  0.00  0.00    -0.056 NA
BRANCH  10  11
ATOM     11  C   UNL d   1     -41.643  15.857  16.772  0.00  0.00     0.163 C 
BRANCH  11  12
ATOM     12  C   UNL d   1     -41.869  15.922  15.984  0.00  0.00     0.255 C 
ATOM     13  O   UNL d   1     -42.666  15.921  15.778  0.00  0.00    -0.281 OA
ENDBRANCH  11  12
ENDBRANCH  10  11
ENDBRANCH   1  10
BRANCH   2  14
ATOM     14  C   UNL d   1     -40.168  13.967  17.757  0.00  0.00     0.098 C 
BRANCH  14  15
ATOM     15  C   UNL d   1     -39.379  13.879  17.513  0.00  0.00     0.018 C 
ATOM     16  C   UNL d   1     -39.042  14.421  16.999  0.00  0.00     0.002 C 
ATOM     17  C   UNL d   1     -38.934  13.241  17.793  0.00  0.00     0.002 C 
ENDBRANCH  14  15
ENDBRANCH   2  14
TORSDOF 5
ENDMDL
MODEL 8
REMARK VINA RESULT:      -5.5      1.280      2.327
REMARK  5 active torsions:
REMARK  status: ('A' for Active; 'I' for Inactive)
REMARK    1  A    between atoms: N_7  and  C_1 
REMARK    2  A    between atoms: C_6  and  N_2 
REMARK    3  A    between atoms: C_11  and  C_6 
REMARK    4  A    between atoms: C_12  and  N_7 
REMARK    5  A    between atoms: C_13  and  C_12 
ROOT
ATOM      1  C   UNL d   1     -48.742  13.256  23.115  0.00  0.00     0.735 A 
ATOM      2  N   UNL d   1     -48.499  13.972  22.776  0.00  0.00    -0.138 N 
ATOM      3  N   UNL d   1     -49.457  13.384  23.518  0.00  0.00    -0.059 NA
ATOM      4  C   UNL d   1     -49.062  14.547  22.967  0.00  0.00     0.100 A 
ATOM      5  C   UNL d   1     -49.652  14.178  23.426  0.00  0.00     0.116 A 
ATOM      6  C   UNL d   1     -49.119  15.350  22.788  0.00  0.00     0.020 A 
ATOM      7  C   UNL d   1     -50.293  14.627  23.698  0.00  0.00     0.021 A 
ATOM      8  C   UNL d   1     -49.758  15.789  23.062  0.00  0.00     0.002 A 
ATOM      9  C   UNL d   1     -50.349  15.429  23.519  0.00  0.00     0.002 A 
ENDROOT
BRANCH   1  10
ATOM     10  N   UNL d   1     -48.344  12.535  23.063  0.00  0.00    -0.056 NA
BRANCH  10  11
ATOM     11  C   UNL d   1     -48.749  11.824  23.155  0.00  0.00     0.163 C 
BRANCH  11  12
ATOM     12  C   UNL d   1     -48.345  11.121  23.288  0.00  0.00     0.255 C 
ATOM     13  O   UNL d   1     -48.073  10.672  22.653  0.00  0.00    -0.281 OA
ENDBRANCH  11  12
ENDBRANCH  10  11
ENDBRANCH   1  10
BRANCH   2  14
ATOM     14  C   UNL d   1     -47.818  14.088  22.328  0.00  0.00     0.098 C 
BRANCH  14  15
ATOM     15  C   UNL d   1     -47.128  14.376  22.692  0.00  0.00     0.018 C 
ATOM     16  C   UNL d   1     -46.675  13.884  23.167  0.00  0.00     0.002 C 
ATOM     17  C   UNL d   1     -46.900  15.162  22.573  0.00  0.00     0.002 C 
ENDBRANCH  14  15
ENDBRANCH   2  14
TORSDOF 5
ENDMDL
