MODEL 1
REMARK VINA RESULT:       5.7      0.000      0.000
REMARK  6 active torsions:
REMARK  status: ('A' for Active; 'I' for Inactive)
REMARK    1  A    between atoms: C_7  and  C_3 
REMARK    2  A    between atoms: C_6  and  O_14 
REMARK    3  A    between atoms: S_8  and  C_7 
REMARK    4  A    between atoms: C_17  and  S_8 
REMARK    5  A    between atoms: O_14  and  C_18 
REMARK    6  A    between atoms: C_18  and  C_17 
ROOT
ATOM      1  S   UNL d   1      45.836 -16.527  44.533  0.00  0.00    -0.081 SA
ENDROOT
BRANCH   1   2
ATOM      2  C   UNL d   1      45.381 -15.921  44.854  0.00  0.00     0.074 C 
BRANCH   2   3
ATOM      3  C   UNL d   1      45.641 -15.142  44.804  0.00  0.00     0.169 A 
ATOM      4  N   UNL d   1      46.158 -14.502  44.955  0.00  0.00    -0.225 NA
ATOM      5  C   UNL d   1      45.849 -13.824  44.571  0.00  0.00     0.101 A 
ATOM      6  C   UNL d   1      45.146 -14.054  44.189  0.00  0.00     0.101 A 
ATOM      7  C   UNL d   1      46.102 -13.035  44.514  0.00  0.00     0.021 A 
ATOM      8  N   UNL d   1      45.010 -14.866  44.327  0.00  0.00    -0.225 NA
ATOM      9  C   UNL d   1      44.709 -13.490  43.756  0.00  0.00     0.021 A 
ATOM     10  C   UNL d   1      44.970 -12.719  43.709  0.00  0.00     0.002 A 
ATOM     11  C   UNL d   1      45.667 -12.491  44.088  0.00  0.00     0.002 A 
ENDBRANCH   2   3
ENDBRANCH   1   2
BRANCH   1  12
ATOM     12  C   UNL d   1      45.813 -17.279  44.868  0.00  0.00     0.062 C 
BRANCH  12  13
ATOM     13  C   UNL d   1      46.157 -17.915  44.474  0.00  0.00     0.130 C 
BRANCH  13  14
ATOM     14  O   UNL d   1      46.417 -18.567  44.907  0.00  0.00    -0.305 OA
BRANCH  14  15
ATOM     15  C   UNL d   1      46.472 -18.996  44.204  0.00  0.00     0.100 A 
ATOM     16  C   UNL d   1      46.567 -18.606  43.494  0.00  0.00     0.025 A 
ATOM     17  C   UNL d   1      46.623 -19.031  42.789  0.00  0.00     0.002 A 
ATOM     18  C   UNL d   1      46.583 -19.850  42.802  0.00  0.00     0.000 A 
ATOM     19  C   UNL d   1      46.487 -20.244  43.524  0.00  0.00     0.002 A 
ATOM     20  C   UNL d   1      46.638 -20.280  42.100  0.00  0.00     0.000 C 
ATOM     21  C   UNL d   1      46.432 -19.811  44.225  0.00  0.00     0.025 A 
ENDBRANCH  14  15
ENDBRANCH  13  14
ENDBRANCH  12  13
ENDBRANCH   1  12
TORSDOF 6
ENDMDL
MODEL 2
REMARK VINA RESULT:       6.8      1.517      5.481
REMARK  6 active torsions:
REMARK  status: ('A' for Active; 'I' for Inactive)
REMARK    1  A    between atoms: C_7  and  C_3 
REMARK    2  A    between atoms: C_6  and  O_14 
REMARK    3  A    between atoms: S_8  and  C_7 
REMARK    4  A    between atoms: C_17  and  S_8 
REMARK    5  A    between atoms: O_14  and  C_18 
REMARK    6  A    between atoms: C_18  and  C_17 
ROOT
ATOM      1  S   UNL d   1      45.764 -16.154  44.470  0.00  0.00    -0.081 SA
ENDROOT
BRANCH   1   2
ATOM      2  C   UNL d   1      45.954 -16.918  44.708  0.00  0.00     0.074 C 
BRANCH   2   3
ATOM      3  C   UNL d   1      46.101 -17.498  44.144  0.00  0.00     0.169 A 
ATOM      4  N   UNL d   1      46.217 -17.795  43.370  0.00  0.00    -0.225 NA
ATOM      5  C   UNL d   1      46.356 -18.620  43.428  0.00  0.00     0.101 A 
ATOM      6  C   UNL d   1      46.324 -18.821  44.236  0.00  0.00     0.101 A 
ATOM      7  C   UNL d   1      46.505 -19.214  42.868  0.00  0.00     0.021 A 
ATOM      8  N   UNL d   1      46.167 -18.135  44.684  0.00  0.00    -0.225 NA
ATOM      9  C   UNL d   1      46.443 -19.614  44.468  0.00  0.00     0.021 A 
ATOM     10  C   UNL d   1      46.589 -20.186  43.906  0.00  0.00     0.002 A 
ATOM     11  C   UNL d   1      46.620 -19.987  43.106  0.00  0.00     0.002 A 
ENDBRANCH   2   3
ENDBRANCH   1   2
BRANCH   1  12
ATOM     12  C   UNL d   1      45.281 -15.684  44.944  0.00  0.00     0.062 C 
BRANCH  12  13
ATOM     13  C   UNL d   1      45.269 -14.867  44.837  0.00  0.00     0.130 C 
BRANCH  13  14
ATOM     14  O   UNL d   1      44.565 -14.454  44.955  0.00  0.00    -0.305 OA
BRANCH  14  15
ATOM     15  C   UNL d   1      44.846 -13.859  44.456  0.00  0.00     0.100 A 
ATOM     16  C   UNL d   1      45.527 -13.452  44.647  0.00  0.00     0.025 A 
ATOM     17  C   UNL d   1      45.811 -12.857  44.151  0.00  0.00     0.002 A 
ATOM     18  C   UNL d   1      45.407 -12.674  43.461  0.00  0.00     0.000 A 
ATOM     19  C   UNL d   1      44.716 -13.089  43.269  0.00  0.00     0.002 A 
ATOM     20  C   UNL d   1      45.687 -12.080  42.961  0.00  0.00     0.000 C 
ATOM     21  C   UNL d   1      44.439 -13.682  43.771  0.00  0.00     0.025 A 
ENDBRANCH  14  15
ENDBRANCH  13  14
ENDBRANCH  12  13
ENDBRANCH   1  12
TORSDOF 6
ENDMDL
