MODEL 1
REMARK VINA RESULT:      -7.7      0.000      0.000
REMARK  4 active torsions:
REMARK  status: ('A' for Active; 'I' for Inactive)
REMARK    1  A    between atoms: C_6  and  C_2 
REMARK    2  A    between atoms: C_7  and  C_5 
REMARK    3  A    between atoms: O_8  and  C_7 
REMARK    4  A    between atoms: C_9  and  O_8 
ROOT
ATOM      1  N   UNL d   1      52.919  32.345  53.235  0.00  0.00    -0.121 NA
ATOM      2  C   UNL d   1      53.063  32.993  53.717  0.00  0.00     0.204 A 
ATOM      3  O   UNL d   1      52.389  33.479  53.694  0.00  0.00    -0.267 OA
ATOM      4  N   UNL d   1      52.164  32.422  52.912  0.00  0.00    -0.119 NA
ATOM      5  C   UNL d   1      51.835  33.124  53.196  0.00  0.00     0.230 A 
ENDROOT
BRANCH   5   6
ATOM      6  C   UNL d   1      51.086  33.414  53.012  0.00  0.00     0.169 C 
BRANCH   6   7
ATOM      7  O   UNL d   1      51.003  34.143  52.629  0.00  0.00    -0.301 OA
BRANCH   7   8
ATOM      8  C   UNL d   1      50.247  34.419  52.436  0.00  0.00     0.100 A 
ATOM      9  C   UNL d   1      49.937  34.285  51.683  0.00  0.00     0.025 A 
ATOM     10  C   UNL d   1      49.185  34.561  51.497  0.00  0.00     0.002 A 
ATOM     11  C   UNL d   1      48.741  34.971  52.058  0.00  0.00     0.000 A 
ATOM     12  C   UNL d   1      49.055  35.104  52.812  0.00  0.00     0.002 A 
ATOM     13  C   UNL d   1      49.809  34.831  53.009  0.00  0.00     0.025 A 
ENDBRANCH   7   8
ENDBRANCH   6   7
ENDBRANCH   5   6
BRANCH   2  14
ATOM     14  C   UNL d   1      53.750  33.140  54.148  0.00  0.00     0.043 A 
ATOM     15  C   UNL d   1      54.473  33.230  53.758  0.00  0.00     0.004 A 
ATOM     16  C   UNL d   1      55.160  33.378  54.189  0.00  0.00     0.000 A 
ATOM     17  C   UNL d   1      55.125  33.436  55.012  0.00  0.00     0.000 A 
ATOM     18  C   UNL d   1      54.401  33.346  55.402  0.00  0.00     0.000 A 
ATOM     19  C   UNL d   1      53.714  33.198  54.970  0.00  0.00     0.004 A 
ENDBRANCH   2  14
TORSDOF 4
ENDMDL
MODEL 2
REMARK VINA RESULT:      -7.6      1.657      4.767
REMARK  4 active torsions:
REMARK  status: ('A' for Active; 'I' for Inactive)
REMARK    1  A    between atoms: C_6  and  C_2 
REMARK    2  A    between atoms: C_7  and  C_5 
REMARK    3  A    between atoms: O_8  and  C_7 
REMARK    4  A    between atoms: C_9  and  O_8 
ROOT
ATOM      1  N   UNL d   1      51.755  34.543  52.637  0.00  0.00    -0.121 NA
ATOM      2  C   UNL d   1      51.049  34.130  52.680  0.00  0.00     0.204 A 
ATOM      3  O   UNL d   1      51.222  33.360  52.940  0.00  0.00    -0.267 OA
ATOM      4  N   UNL d   1      52.367  34.040  52.867  0.00  0.00    -0.119 NA
ATOM      5  C   UNL d   1      52.037  33.307  53.055  0.00  0.00     0.230 A 
ENDROOT
BRANCH   5   6
ATOM      6  C   UNL d   1      52.453  32.643  53.311  0.00  0.00     0.169 C 
BRANCH   6   7
ATOM      7  O   UNL d   1      52.650  32.043  52.776  0.00  0.00    -0.301 OA
BRANCH   7   8
ATOM      8  C   UNL d   1      52.924  31.315  53.063  0.00  0.00     0.100 A 
ATOM      9  C   UNL d   1      53.600  31.283  53.534  0.00  0.00     0.025 A 
ATOM     10  C   UNL d   1      53.866  30.557  53.815  0.00  0.00     0.002 A 
ATOM     11  C   UNL d   1      53.461  29.864  53.629  0.00  0.00     0.000 A 
ATOM     12  C   UNL d   1      52.783  29.900  53.156  0.00  0.00     0.002 A 
ATOM     13  C   UNL d   1      52.507  30.623  52.868  0.00  0.00     0.025 A 
ENDBRANCH   7   8
ENDBRANCH   6   7
ENDBRANCH   5   6
BRANCH   2  14
ATOM     14  C   UNL d   1      50.298  34.421  52.500  0.00  0.00     0.043 A 
ATOM     15  C   UNL d   1      49.864  34.831  53.072  0.00  0.00     0.004 A 
ATOM     16  C   UNL d   1      49.114  35.121  52.891  0.00  0.00     0.000 A 
ATOM     17  C   UNL d   1      48.797  35.003  52.139  0.00  0.00     0.000 A 
ATOM     18  C   UNL d   1      49.231  34.594  51.567  0.00  0.00     0.000 A 
ATOM     19  C   UNL d   1      49.981  34.303  51.747  0.00  0.00     0.004 A 
ENDBRANCH   2  14
TORSDOF 4
ENDMDL
MODEL 3
REMARK VINA RESULT:      -7.5      2.673      3.614
REMARK  4 active torsions:
REMARK  status: ('A' for Active; 'I' for Inactive)
REMARK    1  A    between atoms: C_6  and  C_2 
REMARK    2  A    between atoms: C_7  and  C_5 
REMARK    3  A    between atoms: O_8  and  C_7 
REMARK    4  A    between atoms: C_9  and  O_8 
ROOT
ATOM      1  N   UNL d   1      52.836  30.466  52.796  0.00  0.00    -0.121 NA
ATOM      2  C   UNL d   1      53.099  30.453  53.573  0.00  0.00     0.204 A 
ATOM      3  O   UNL d   1      53.211  31.241  53.815  0.00  0.00    -0.267 OA
ATOM      4  N   UNL d   1      52.782  31.252  52.552  0.00  0.00    -0.119 NA
ATOM      5  C   UNL d   1      53.014  31.732  53.182  0.00  0.00     0.230 A 
ENDROOT
BRANCH   5   6
ATOM      6  C   UNL d   1      53.042  32.556  53.175  0.00  0.00     0.169 C 
BRANCH   6   7
ATOM      7  O   UNL d   1      52.543  32.994  53.670  0.00  0.00    -0.301 OA
BRANCH   7   8
ATOM      8  C   UNL d   1      52.704  33.796  53.804  0.00  0.00     0.100 A 
ATOM      9  C   UNL d   1      53.083  34.032  54.497  0.00  0.00     0.025 A 
ATOM     10  C   UNL d   1      53.240  34.830  54.625  0.00  0.00     0.002 A 
ATOM     11  C   UNL d   1      53.020  35.392  54.064  0.00  0.00     0.000 A 
ATOM     12  C   UNL d   1      52.639  35.151  53.369  0.00  0.00     0.002 A 
ATOM     13  C   UNL d   1      52.477  34.353  53.231  0.00  0.00     0.025 A 
ENDBRANCH   7   8
ENDBRANCH   6   7
ENDBRANCH   5   6
BRANCH   2  14
ATOM     14  C   UNL d   1      53.232  29.783  54.035  0.00  0.00     0.043 A 
ATOM     15  C   UNL d   1      53.028  29.786  54.836  0.00  0.00     0.004 A 
ATOM     16  C   UNL d   1      53.161  29.116  55.299  0.00  0.00     0.000 A 
ATOM     17  C   UNL d   1      53.496  28.443  54.960  0.00  0.00     0.000 A 
ATOM     18  C   UNL d   1      53.699  28.440  54.159  0.00  0.00     0.000 A 
ATOM     19  C   UNL d   1      53.567  29.110  53.697  0.00  0.00     0.004 A 
ENDBRANCH   2  14
TORSDOF 4
ENDMDL
MODEL 4
REMARK VINA RESULT:      -7.3      0.943      4.866
REMARK  4 active torsions:
REMARK  status: ('A' for Active; 'I' for Inactive)
REMARK    1  A    between atoms: C_6  and  C_2 
REMARK    2  A    between atoms: C_7  and  C_5 
REMARK    3  A    between atoms: O_8  and  C_7 
REMARK    4  A    between atoms: C_9  and  O_8 
ROOT
ATOM      1  N   UNL d   1      50.921  34.284  51.794  0.00  0.00    -0.121 NA
ATOM      2  C   UNL d   1      50.367  34.406  52.386  0.00  0.00     0.204 A 
ATOM      3  O   UNL d   1      50.705  34.156  53.103  0.00  0.00    -0.267 OA
ATOM      4  N   UNL d   1      51.600  33.961  52.134  0.00  0.00    -0.119 NA
ATOM      5  C   UNL d   1      51.466  33.882  52.944  0.00  0.00     0.230 A 
ENDROOT
BRANCH   5   6
ATOM      6  C   UNL d   1      52.003  33.581  53.493  0.00  0.00     0.169 C 
BRANCH   6   7
ATOM      7  O   UNL d   1      52.810  33.751  53.423  0.00  0.00    -0.301 OA
BRANCH   7   8
ATOM      8  C   UNL d   1      53.333  33.500  54.015  0.00  0.00     0.100 A 
ATOM      9  C   UNL d   1      53.538  32.704  54.076  0.00  0.00     0.025 A 
ATOM     10  C   UNL d   1      54.058  32.461  54.666  0.00  0.00     0.002 A 
ATOM     11  C   UNL d   1      54.373  33.009  55.194  0.00  0.00     0.000 A 
ATOM     12  C   UNL d   1      54.165  33.808  55.130  0.00  0.00     0.002 A 
ATOM     13  C   UNL d   1      53.645  34.062  54.541  0.00  0.00     0.025 A 
ENDBRANCH   7   8
ENDBRANCH   6   7
ENDBRANCH   5   6
BRANCH   2  14
ATOM     14  C   UNL d   1      49.610  34.719  52.293  0.00  0.00     0.043 A 
ATOM     15  C   UNL d   1      49.192  34.591  51.591  0.00  0.00     0.004 A 
ATOM     16  C   UNL d   1      48.435  34.905  51.498  0.00  0.00     0.000 A 
ATOM     17  C   UNL d   1      48.094  35.345  52.106  0.00  0.00     0.000 A 
ATOM     18  C   UNL d   1      48.512  35.473  52.809  0.00  0.00     0.000 A 
ATOM     19  C   UNL d   1      49.269  35.159  52.902  0.00  0.00     0.004 A 
ENDBRANCH   2  14
TORSDOF 4
ENDMDL
MODEL 5
REMARK VINA RESULT:      -7.2      2.690      4.511
REMARK  4 active torsions:
REMARK  status: ('A' for Active; 'I' for Inactive)
REMARK    1  A    between atoms: C_6  and  C_2 
REMARK    2  A    between atoms: C_7  and  C_5 
REMARK    3  A    between atoms: O_8  and  C_7 
REMARK    4  A    between atoms: C_9  and  O_8 
ROOT
ATOM      1  N   UNL d   1      52.603  32.752  52.626  0.00  0.00    -0.121 NA
ATOM      2  C   UNL d   1      52.927  33.001  53.336  0.00  0.00     0.204 A 
ATOM      3  O   UNL d   1      53.246  32.334  53.716  0.00  0.00    -0.267 OA
ATOM      4  N   UNL d   1      52.716  31.937  52.559  0.00  0.00    -0.119 NA
ATOM      5  C   UNL d   1      53.115  31.679  53.234  0.00  0.00     0.230 A 
ENDROOT
BRANCH   5   6
ATOM      6  C   UNL d   1      53.339  30.901  53.391  0.00  0.00     0.169 C 
BRANCH   6   7
ATOM      7  O   UNL d   1      52.796  30.370  53.721  0.00  0.00    -0.301 OA
BRANCH   7   8
ATOM      8  C   UNL d   1      53.074  29.705  54.131  0.00  0.00     0.100 A 
ATOM      9  C   UNL d   1      53.498  29.120  53.734  0.00  0.00     0.025 A 
ATOM     10  C   UNL d   1      53.770  28.463  54.147  0.00  0.00     0.002 A 
ATOM     11  C   UNL d   1      53.622  28.387  54.954  0.00  0.00     0.000 A 
ATOM     12  C   UNL d   1      53.196  28.977  55.350  0.00  0.00     0.002 A 
ATOM     13  C   UNL d   1      52.918  29.640  54.945  0.00  0.00     0.025 A 
ENDBRANCH   7   8
ENDBRANCH   6   7
ENDBRANCH   5   6
BRANCH   2  14
ATOM     14  C   UNL d   1      52.937  33.773  53.627  0.00  0.00     0.043 A 
ATOM     15  C   UNL d   1      52.609  34.387  53.182  0.00  0.00     0.004 A 
ATOM     16  C   UNL d   1      52.620  35.159  53.472  0.00  0.00     0.000 A 
ATOM     17  C   UNL d   1      52.958  35.317  54.208  0.00  0.00     0.000 A 
ATOM     18  C   UNL d   1      53.286  34.702  54.653  0.00  0.00     0.000 A 
ATOM     19  C   UNL d   1      53.276  33.931  54.363  0.00  0.00     0.004 A 
ENDBRANCH   2  14
TORSDOF 4
ENDMDL
