MODEL 1
REMARK VINA RESULT:      49.5      0.000      0.000
REMARK  5 active torsions:
REMARK  status: ('A' for Active; 'I' for Inactive)
REMARK    1  A    between atoms: C_8  and  N_1 
REMARK       I    between atoms: N_2  and  C_6 
REMARK    2  A    between atoms: S_11  and  C_3 
REMARK    3  A    between atoms: C_6  and  C_8 
REMARK    4  A    between atoms: C_9  and  C_15 
REMARK       I    between atoms: N_10  and  C_9 
REMARK    5  A    between atoms: C_15  and  S_11 
ROOT
ATOM      1  N   UNL d   1      46.526 -18.532  42.822  0.00  0.00    -0.300 N 
ATOM      2  C   UNL d   1      46.333 -17.883  43.969  0.00  0.00     0.049 A 
ATOM      3  C   UNL d   1      46.407 -17.786  43.152  0.00  0.00     0.087 A 
ATOM      4  C   UNL d   1      46.406 -18.684  44.140  0.00  0.00     0.024 A 
ATOM      5  C   UNL d   1      46.525 -19.085  43.429  0.00  0.00     0.065 A 
ATOM      6  C   UNL d   1      46.379 -19.099  44.849  0.00  0.00     0.002 A 
ATOM      7  C   UNL d   1      46.618 -19.906  43.427  0.00  0.00     0.018 A 
ATOM      8  C   UNL d   1      46.471 -19.921  44.852  0.00  0.00     0.000 A 
ATOM      9  C   UNL d   1      46.591 -20.319  44.135  0.00  0.00     0.002 A 
ENDROOT
BRANCH   1  10
ATOM     10  C   UNL d   1      46.627 -18.694  42.021  0.00  0.00     0.142 C 
BRANCH  10  11
ATOM     11  C   UNL d   1      46.222 -18.256  41.458  0.00  0.00     0.283 C 
ATOM     12  N   UNL d   1      46.122 -18.553  40.697  0.00  0.00    -0.267 N 
ATOM     13  C   UNL d   1      45.716 -18.115  40.130  0.00  0.00     0.108 A 
ATOM     14  C   UNL d   1      46.426 -19.290  40.496  0.00  0.00     0.108 A 
ATOM     15  C   UNL d   1      45.615 -18.413  39.370  0.00  0.00     0.118 A 
ATOM     16  C   UNL d   1      45.203 -17.966  38.795  0.00  0.00     0.028 C 
ATOM     17  O   UNL d   1      45.919 -19.152  39.165  0.00  0.00    -0.304 OA
ATOM     18  C   UNL d   1      46.324 -19.591  39.727  0.00  0.00     0.118 A 
ATOM     19  C   UNL d   1      46.629 -20.329  39.527  0.00  0.00     0.028 C 
ATOM     20  O   UNL d   1      45.917 -17.519  41.656  0.00  0.00    -0.265 OA
ENDBRANCH  10  11
ENDBRANCH   1  10
BRANCH   2  21
ATOM     21  S   UNL d   1      46.208 -17.278  44.515  0.00  0.00    -0.080 SA
BRANCH  21  22
ATOM     22  C   UNL d   1      46.055 -16.510  44.262  0.00  0.00     0.097 C 
BRANCH  22  23
ATOM     23  C   UNL d   1      45.410 -16.094  44.581  0.00  0.00     0.272 C 
ATOM     24  N   UNL d   1      45.390 -15.276  44.543  0.00  0.00    -0.267 N 
ATOM     25  C   UNL d   1      44.747 -14.873  44.862  0.00  0.00     0.110 A 
ATOM     26  C   UNL d   1      46.010 -14.864  44.190  0.00  0.00     0.110 A 
ATOM     27  C   UNL d   1      44.724 -14.047  44.825  0.00  0.00     0.142 A 
ATOM     28  O   UNL d   1      45.352 -13.628  44.467  0.00  0.00    -0.300 OA
ATOM     29  C   UNL d   1      45.987 -14.037  44.153  0.00  0.00     0.142 A 
ATOM     30  O   UNL d   1      44.783 -16.501  44.938  0.00  0.00    -0.266 OA
ENDBRANCH  22  23
ENDBRANCH  21  22
ENDBRANCH   2  21
TORSDOF 5
ENDMDL
MODEL 2
REMARK VINA RESULT:      52.3      0.999      4.836
REMARK  5 active torsions:
REMARK  status: ('A' for Active; 'I' for Inactive)
REMARK    1  A    between atoms: C_8  and  N_1 
REMARK       I    between atoms: N_2  and  C_6 
REMARK    2  A    between atoms: S_11  and  C_3 
REMARK    3  A    between atoms: C_6  and  C_8 
REMARK    4  A    between atoms: C_9  and  C_15 
REMARK       I    between atoms: N_10  and  C_9 
REMARK    5  A    between atoms: C_15  and  S_11 
ROOT
ATOM      1  N   UNL d   1      46.312 -17.570  43.782  0.00  0.00    -0.300 N 
ATOM      2  C   UNL d   1      46.382 -18.394  42.738  0.00  0.00     0.049 A 
ATOM      3  C   UNL d   1      46.332 -17.599  42.958  0.00  0.00     0.087 A 
ATOM      4  C   UNL d   1      46.392 -18.850  43.423  0.00  0.00     0.024 A 
ATOM      5  C   UNL d   1      46.349 -18.338  44.068  0.00  0.00     0.065 A 
ATOM      6  C   UNL d   1      46.435 -19.662  43.542  0.00  0.00     0.002 A 
ATOM      7  C   UNL d   1      46.349 -18.640  44.837  0.00  0.00     0.018 A 
ATOM      8  C   UNL d   1      46.436 -19.969  44.310  0.00  0.00     0.000 A 
ATOM      9  C   UNL d   1      46.392 -19.451  44.955  0.00  0.00     0.002 A 
ENDROOT
BRANCH   1  10
ATOM     10  C   UNL d   1      46.264 -16.886  44.237  0.00  0.00     0.142 C 
BRANCH  10  11
ATOM     11  C   UNL d   1      45.531 -16.567  44.424  0.00  0.00     0.283 C 
ATOM     12  N   UNL d   1      45.443 -15.752  44.499  0.00  0.00    -0.267 N 
ATOM     13  C   UNL d   1      44.709 -15.429  44.686  0.00  0.00     0.108 A 
ATOM     14  C   UNL d   1      46.087 -15.252  44.387  0.00  0.00     0.108 A 
ATOM     15  C   UNL d   1      44.620 -14.614  44.761  0.00  0.00     0.118 A 
ATOM     16  C   UNL d   1      43.874 -14.289  44.951  0.00  0.00     0.028 C 
ATOM     17  O   UNL d   1      45.265 -14.110  44.649  0.00  0.00    -0.304 OA
ATOM     18  C   UNL d   1      45.997 -14.429  44.462  0.00  0.00     0.118 A 
ATOM     19  C   UNL d   1      46.642 -13.929  44.350  0.00  0.00     0.028 C 
ATOM     20  O   UNL d   1      44.886 -17.063  44.537  0.00  0.00    -0.265 OA
ENDBRANCH  10  11
ENDBRANCH   1  10
BRANCH   2  21
ATOM     21  S   UNL d   1      46.414 -18.678  41.965  0.00  0.00    -0.080 SA
BRANCH  21  22
ATOM     22  C   UNL d   1      46.004 -18.298  41.362  0.00  0.00     0.097 C 
BRANCH  22  23
ATOM     23  C   UNL d   1      46.116 -18.539  40.574  0.00  0.00     0.272 C 
ATOM     24  N   UNL d   1      45.710 -18.166  39.969  0.00  0.00    -0.267 N 
ATOM     25  C   UNL d   1      45.828 -18.412  39.192  0.00  0.00     0.110 A 
ATOM     26  C   UNL d   1      45.189 -17.550  40.139  0.00  0.00     0.110 A 
ATOM     27  C   UNL d   1      45.418 -18.037  38.578  0.00  0.00     0.142 A 
ATOM     28  O   UNL d   1      44.890 -17.413  38.750  0.00  0.00    -0.300 OA
ATOM     29  C   UNL d   1      44.780 -17.175  39.525  0.00  0.00     0.142 A 
ATOM     30  O   UNL d   1      46.638 -19.157  40.395  0.00  0.00    -0.266 OA
ENDBRANCH  22  23
ENDBRANCH  21  22
ENDBRANCH   2  21
TORSDOF 5
ENDMDL
