MODEL 1
REMARK VINA RESULT:      33.5      0.000      0.000
REMARK  3 active torsions:
REMARK  status: ('A' for Active; 'I' for Inactive)
REMARK    1  A    between atoms: C_8  and  C_1 
REMARK    2  A    between atoms: O_13  and  C_6 
REMARK    3  A    between atoms: C_17  and  O_13 
ROOT
ATOM      1  C   UNL d   1      13.980  12.573  -2.299  0.00  0.00     0.009 A 
ATOM      2  C   UNL d   1      14.088  13.368  -2.505  0.00  0.00     0.046 A 
ATOM      3  C   UNL d   1      13.856  13.632  -3.255  0.00  0.00     0.105 A 
ATOM      4  O   UNL d   1      13.520  13.106  -3.791  0.00  0.00    -0.273 OA
ATOM      5  C   UNL d   1      13.645  12.045  -2.833  0.00  0.00     0.069 A 
ATOM      6  C   UNL d   1      14.424  13.896  -1.971  0.00  0.00     0.102 A 
ATOM      7  C   UNL d   1      13.413  12.308  -3.580  0.00  0.00     0.300 A 
ATOM      8  C   UNL d   1      13.961  14.421  -3.465  0.00  0.00     0.025 A 
ATOM      9  C   UNL d   1      14.531  14.687  -2.178  0.00  0.00     0.025 A 
ATOM     10  O   UNL d   1      13.075  11.779  -4.121  0.00  0.00    -0.259 OA
ATOM     11  C   UNL d   1      14.299  14.950  -2.925  0.00  0.00     0.004 A 
ATOM     12  C   UNL d   1      14.402  15.737  -3.139  0.00  0.00     0.000 C 
ENDROOT
BRANCH   1  13
ATOM     13  C   UNL d   1      14.213  12.309  -1.549  0.00  0.00     0.000 A 
ATOM     14  C   UNL d   1      15.019  12.217  -1.376  0.00  0.00     0.000 A 
ATOM     15  C   UNL d   1      15.254  11.950  -0.617  0.00  0.00     0.000 A 
ATOM     16  C   UNL d   1      14.686  11.780  -0.046  0.00  0.00     0.000 A 
ATOM     17  C   UNL d   1      13.876  11.876  -0.231  0.00  0.00     0.000 A 
ATOM     18  C   UNL d   1      13.644  12.139  -0.978  0.00  0.00     0.000 A 
ENDBRANCH   1  13
BRANCH   6  19
ATOM     19  O   UNL d   1      14.656  13.632  -1.221  0.00  0.00    -0.305 OA
BRANCH  19  20
ATOM     20  C   UNL d   1      15.091  14.116  -0.730  0.00  0.00     0.123 C 
ATOM     21  C   UNL d   1      14.753  14.402  -0.036  0.00  0.00     0.029 C 
ENDBRANCH  19  20
ENDBRANCH   6  19
TORSDOF 3
ENDMDL
