MODEL 1
REMARK VINA RESULT:       7.4      0.000      0.000
REMARK  8 active torsions:
REMARK  status: ('A' for Active; 'I' for Inactive)
REMARK    1  A    between atoms: S_13  and  C_4 
REMARK    2  A    between atoms: C_5  and  N_10 
REMARK    3  A    between atoms: C_20  and  N_6 
REMARK       I    between atoms: N_10  and  C_14 
REMARK    4  A    between atoms: C_19  and  S_13 
REMARK    5  A    between atoms: C_14  and  C_19 
REMARK    6  A    between atoms: C_22  and  C_20 
REMARK    7  A    between atoms: C_28  and  C_22 
REMARK    8  A    between atoms: N_25  and  C_28 
ROOT
ATOM      1  N   UNL d   1     -41.939-121.811 -53.114  0.00  0.00    -0.185 NA
ATOM      2  C   UNL d   1     -42.265-121.509 -53.809  0.00  0.00     0.354 A 
ATOM      3  C   UNL d   1     -41.475-122.958 -53.831  0.00  0.00     0.040 A 
ATOM      4  C   UNL d   1     -41.544-122.536 -53.124  0.00  0.00     0.117 A 
ATOM      5  N   UNL d   1     -42.196-121.931 -54.514  0.00  0.00    -0.258 N 
ATOM      6  C   UNL d   1     -41.802-122.656 -54.525  0.00  0.00     0.070 A 
ATOM      7  O   UNL d   1     -42.664-120.781 -53.805  0.00  0.00    -0.244 OA
ATOM      8  C   UNL d   1     -41.123-123.677 -54.014  0.00  0.00     0.004 A 
ATOM      9  C   UNL d   1     -41.649-123.190 -55.133  0.00  0.00     0.018 A 
ATOM     10  C   UNL d   1     -41.233-123.817 -54.823  0.00  0.00     0.002 A 
ENDROOT
BRANCH   4  11
ATOM     11  S   UNL d   1     -41.218-122.838 -52.429  0.00  0.00    -0.062 SA
BRANCH  11  12
ATOM     12  C   UNL d   1     -41.210-122.384 -51.752  0.00  0.00     0.099 C 
BRANCH  12  13
ATOM     13  C   UNL d   1     -41.490-122.698 -51.042  0.00  0.00     0.288 C 
ATOM     14  N   UNL d   1     -41.448-122.255 -50.351  0.00  0.00    -0.182 NA
ATOM     15  O   UNL d   1     -41.812-123.457 -51.026  0.00  0.00    -0.265 OA
BRANCH  14  16
ATOM     16  C   UNL d   1     -41.728-122.568 -49.641  0.00  0.00     0.197 A 
ATOM     17  N   UNL d   1     -41.196-122.848 -49.075  0.00  0.00    -0.221 NA
ATOM     18  C   UNL d   1     -41.640-123.125 -48.430  0.00  0.00     0.090 A 
ATOM     19  C   UNL d   1     -41.415-123.462 -47.712  0.00  0.00     0.020 A 
ATOM     20  C   UNL d   1     -42.430-123.017 -48.599  0.00  0.00     0.050 A 
ATOM     21  C   UNL d   1     -41.987-123.687 -47.169  0.00  0.00     0.002 A 
ATOM     22  C   UNL d   1     -42.782-123.579 -47.339  0.00  0.00     0.001 A 
ATOM     23  C   UNL d   1     -43.009-123.244 -48.053  0.00  0.00     0.008 A 
ATOM     24  C   UNL d   1     -43.354-123.815 -46.774  0.00  0.00     0.000 C 
ATOM     25  S   UNL d   1     -42.493-122.672 -49.350  0.00  0.00    -0.047 SA
ENDBRANCH  14  16
ENDBRANCH  12  13
ENDBRANCH  11  12
ENDBRANCH   4  11
BRANCH   5  26
ATOM     26  C   UNL d   1     -42.523-121.629 -55.209  0.00  0.00     0.086 C 
BRANCH  26  27
ATOM     27  C   UNL d   1     -42.046-121.472 -55.855  0.00  0.00     0.038 C 
BRANCH  27  28
ATOM     28  C   UNL d   1     -42.370-121.155 -56.544  0.00  0.00     0.082 C 
BRANCH  28  29
ATOM     29  N   UNL d   1     -41.907-120.693 -57.042  0.00  0.00    -0.300 N 
ATOM     30  C   UNL d   1     -42.046-120.694 -57.855  0.00  0.00     0.100 C 
ATOM     31  C   UNL d   1     -41.302-120.228 -56.728  0.00  0.00     0.100 C 
ENDBRANCH  28  29
ENDBRANCH  27  28
ENDBRANCH  26  27
ENDBRANCH   5  26
TORSDOF 8
ENDMDL
