MODEL 1
REMARK VINA RESULT:      20.0      0.000      0.000
REMARK  5 active torsions:
REMARK  status: ('A' for Active; 'I' for Inactive)
REMARK       I    between atoms: N_3  and  C_1 
REMARK    1  A    between atoms: C_6  and  C_1 
REMARK    2  A    between atoms: C_2  and  S_4 
REMARK    3  A    between atoms: C_7  and  N_3 
REMARK    4  A    between atoms: S_4  and  C_8 
REMARK    5  A    between atoms: C_15  and  C_6 
ROOT
ATOM      1  C   UNL d   1      13.526  11.792  -2.693  0.00  0.00     0.085 A 
ATOM      2  C   UNL d   1      14.066  11.817  -1.160  0.00  0.00     0.034 A 
ATOM      3  C   UNL d   1      12.985  11.782  -2.071  0.00  0.00     0.020 A 
ATOM      4  C   UNL d   1      14.329  11.815  -2.556  0.00  0.00     0.020 A 
ATOM      5  C   UNL d   1      14.607  11.827  -1.791  0.00  0.00     0.008 A 
ATOM      6  C   UNL d   1      13.260  11.794  -1.298  0.00  0.00     0.008 A 
ENDROOT
BRANCH   1   7
ATOM      7  N   UNL d   1      13.250  11.780  -3.470  0.00  0.00    -0.208 NA
ATOM      8  C   UNL d   1      13.188  12.487  -3.896  0.00  0.00     0.279 C 
ATOM      9  O   UNL d   1      12.918  12.481  -4.659  0.00  0.00    -0.265 OA
BRANCH   8  10
ATOM     10  C   UNL d   1      13.402  13.191  -3.539  0.00  0.00     0.062 C 
BRANCH  10  11
ATOM     11  C   UNL d   1      13.342  13.882  -3.943  0.00  0.00     0.005 A 
ATOM     12  C   UNL d   1      12.834  13.945  -4.596  0.00  0.00     0.000 A 
ATOM     13  C   UNL d   1      12.769  14.667  -5.022  0.00  0.00     0.000 A 
ATOM     14  C   UNL d   1      13.226  15.329  -4.779  0.00  0.00     0.000 A 
ATOM     15  C   UNL d   1      13.740  15.268  -4.121  0.00  0.00     0.000 A 
ATOM     16  C   UNL d   1      13.793  14.543  -3.708  0.00  0.00     0.000 A 
ENDBRANCH  10  11
ENDBRANCH   8  10
ENDBRANCH   1   7
BRANCH   2  17
ATOM     17  S   UNL d   1      14.345  11.829  -0.392  0.00  0.00    -0.028 SA
BRANCH  17  18
ATOM     18  C   UNL d   1      14.852  12.421  -0.141  0.00  0.00     0.309 C 
ATOM     19  F   UNL d   1      15.639  12.250  -0.015  0.00  0.00    -0.165 F 
ATOM     20  F   UNL d   1      14.581  13.172  -0.017  0.00  0.00    -0.165 F 
ENDBRANCH  17  18
ENDBRANCH   2  17
TORSDOF 5
ENDMDL
