MODEL 1
REMARK VINA RESULT:       0.6      0.000      0.000
REMARK  5 active torsions:
REMARK  status: ('A' for Active; 'I' for Inactive)
REMARK    1  A    between atoms: S_10  and  C_1 
REMARK    2  A    between atoms: C_2  and  C_3 
REMARK    3  A    between atoms: C_13  and  C_6 
REMARK       I    between atoms: N_8  and  C_9 
REMARK    4  A    between atoms: C_9  and  C_11 
REMARK    5  A    between atoms: C_11  and  S_10 
ROOT
ATOM      1  C   UNL d   1      32.305  18.777 -24.669  0.00  0.00     0.194 A 
ATOM      2  C   UNL d   1      31.011  18.172 -24.518  0.00  0.00     0.156 A 
ATOM      3  N   UNL d   1      31.478  18.809 -24.756  0.00  0.00    -0.217 NA
ATOM      4  N   UNL d   1      32.649  18.122 -24.351  0.00  0.00    -0.221 NA
ATOM      5  C   UNL d   1      32.175  17.481 -24.112  0.00  0.00     0.085 A 
ATOM      6  C   UNL d   1      31.356  17.516 -24.200  0.00  0.00     0.042 A 
ENDROOT
BRANCH   1   7
ATOM      7  S   UNL d   1      32.770  19.427 -24.912  0.00  0.00    -0.043 SA
BRANCH   7   8
ATOM      8  C   UNL d   1      33.237  19.839 -24.368  0.00  0.00     0.099 C 
BRANCH   8   9
ATOM      9  C   UNL d   1      33.239  20.664 -24.365  0.00  0.00     0.272 C 
ATOM     10  N   UNL d   1      33.239  21.080 -23.645  0.00  0.00    -0.267 N 
ATOM     11  C   UNL d   1      33.238  20.664 -22.931  0.00  0.00     0.110 A 
ATOM     12  C   UNL d   1      33.241  21.894 -23.650  0.00  0.00     0.110 A 
ATOM     13  C   UNL d   1      33.238  21.062 -22.221  0.00  0.00     0.142 A 
ATOM     14  O   UNL d   1      33.240  21.891 -22.216  0.00  0.00    -0.300 OA
ATOM     15  C   UNL d   1      33.241  22.307 -22.931  0.00  0.00     0.142 A 
ATOM     16  O   UNL d   1      33.240  21.084 -25.087  0.00  0.00    -0.266 OA
ENDBRANCH   8   9
ENDBRANCH   7   8
ENDBRANCH   1   7
BRANCH   2  17
ATOM     17  C   UNL d   1      30.198  18.223 -24.612  0.00  0.00     0.435 C 
ATOM     18  F   UNL d   1      29.371  18.267 -24.713  0.00  0.00    -0.165 F 
ATOM     19  F   UNL d   1      30.226  17.513 -25.058  0.00  0.00    -0.165 F 
ATOM     20  F   UNL d   1      30.176  18.930 -24.167  0.00  0.00    -0.165 F 
ENDBRANCH   2  17
BRANCH   5  21
ATOM     21  C   UNL d   1      32.532  16.802 -23.783  0.00  0.00     0.018 A 
ATOM     22  C   UNL d   1      32.693  16.769 -22.965  0.00  0.00     0.002 A 
ATOM     23  C   UNL d   1      33.044  16.100 -22.641  0.00  0.00     0.000 A 
ATOM     24  C   UNL d   1      33.240  15.453 -23.129  0.00  0.00     0.000 A 
ATOM     25  C   UNL d   1      33.084  15.478 -23.934  0.00  0.00     0.000 A 
ATOM     26  C   UNL d   1      32.722  16.168 -24.269  0.00  0.00     0.002 A 
ENDBRANCH   5  21
TORSDOF 5
ENDMDL
