MODEL 1
REMARK VINA RESULT:      -1.0      0.000      0.000
REMARK  5 active torsions:
REMARK  status: ('A' for Active; 'I' for Inactive)
REMARK    1  A    between atoms: C_10  and  N_2 
REMARK    2  A    between atoms: C_11  and  N_4 
REMARK    3  A    between atoms: C_12  and  C_11 
REMARK       I    between atoms: N_16  and  C_12 
REMARK       I    between atoms: C_15  and  N_17 
REMARK    4  A    between atoms: C_22  and  N_16 
REMARK    5  A    between atoms: N_17  and  C_23 
ROOT
ATOM      1  C   UNL d   1      59.930  -1.975  28.967  0.00  0.00     0.172 A 
ATOM      2  N   UNL d   1      58.897  -2.976  28.941  0.00  0.00    -0.226 N 
ATOM      3  C   UNL d   1      58.340  -2.381  29.161  0.00  0.00     0.342 A 
ATOM      4  N   UNL d   1      58.585  -1.611  29.277  0.00  0.00    -0.252 N 
ATOM      5  C   UNL d   1      59.373  -1.406  29.182  0.00  0.00     0.098 A 
ATOM      6  C   UNL d   1      59.687  -2.762  28.847  0.00  0.00     0.292 A 
ATOM      7  O   UNL d   1      60.667  -1.622  28.911  0.00  0.00    -0.301 OA
ATOM      8  C   UNL d   1      59.792  -0.705  29.253  0.00  0.00     0.041 A 
ATOM      9  C   UNL d   1      60.578  -0.852  29.086  0.00  0.00     0.102 A 
ATOM     10  O   UNL d   1      57.529  -2.581  29.262  0.00  0.00    -0.245 OA
ATOM     11  O   UNL d   1      60.250  -3.341  28.629  0.00  0.00    -0.264 OA
ATOM     12  C   UNL d   1      59.543   0.064  29.456  0.00  0.00     0.004 A 
ATOM     13  C   UNL d   1      61.132  -0.235  29.116  0.00  0.00     0.025 A 
ATOM     14  C   UNL d   1      60.097   0.681  29.486  0.00  0.00     0.000 A 
ATOM     15  C   UNL d   1      60.880   0.517  29.315  0.00  0.00     0.002 A 
ENDROOT
BRANCH   4  16
ATOM     16  C   UNL d   1      58.027  -1.017  29.497  0.00  0.00     0.147 C 
BRANCH  16  17
ATOM     17  C   UNL d   1      57.813  -0.935  30.314  0.00  0.00     0.297 C 
ATOM     18  N   UNL d   1      57.235  -0.407  30.526  0.00  0.00    -0.207 NA
ATOM     19  O   UNL d   1      58.199  -1.396  30.879  0.00  0.00    -0.264 OA
BRANCH  18  20
ATOM     20  C   UNL d   1      57.031  -0.329  31.308  0.00  0.00     0.085 A 
ATOM     21  C   UNL d   1      57.018   0.412  31.672  0.00  0.00     0.021 A 
ATOM     22  C   UNL d   1      56.811   0.487  32.461  0.00  0.00     0.021 A 
ATOM     23  C   UNL d   1      56.613  -0.187  32.902  0.00  0.00     0.085 A 
ATOM     24  C   UNL d   1      56.624  -0.938  32.543  0.00  0.00     0.021 A 
ATOM     25  C   UNL d   1      56.833  -1.009  31.746  0.00  0.00     0.021 A 
BRANCH  23  26
ATOM     26  N   UNL d   1      56.405  -0.116  33.699  0.00  0.00    -0.208 NA
ATOM     27  C   UNL d   1      55.652   0.177  33.904  0.00  0.00     0.279 C 
ATOM     28  O   UNL d   1      55.454   0.244  34.677  0.00  0.00    -0.265 OA
ATOM     29  C   UNL d   1      55.119   0.394  33.290  0.00  0.00     0.068 C 
ENDBRANCH  23  26
ENDBRANCH  18  20
ENDBRANCH  16  17
ENDBRANCH   4  16
BRANCH   2  30
ATOM     30  C   UNL d   1      58.662  -3.765  28.819  0.00  0.00     0.071 A 
ATOM     31  C   UNL d   1      57.895  -3.939  28.598  0.00  0.00     0.020 A 
ATOM     32  C   UNL d   1      57.658  -4.711  28.476  0.00  0.00     0.031 A 
ATOM     33  C   UNL d   1      58.201  -5.321  28.579  0.00  0.00     0.140 A 
ATOM     34  C   UNL d   1      58.964  -5.163  28.798  0.00  0.00     0.031 A 
ATOM     35  F   UNL d   1      57.959  -6.109  28.455  0.00  0.00    -0.204 F 
ATOM     36  C   UNL d   1      59.206  -4.376  28.922  0.00  0.00     0.020 A 
ENDBRANCH   2  30
TORSDOF 5
ENDMDL
