MODEL 1
REMARK VINA RESULT:      -5.1      0.000      0.000
REMARK  6 active torsions:
REMARK  status: ('A' for Active; 'I' for Inactive)
REMARK    1  A    between atoms: C_12  and  N_1 
REMARK    2  A    between atoms: C_9  and  C_23 
REMARK       I    between atoms: N_10  and  C_9 
REMARK    3  A    between atoms: C_13  and  N_10 
REMARK    4  A    between atoms: C_22  and  C_12 
REMARK    5  A    between atoms: O_21  and  C_15 
REMARK    6  A    between atoms: C_23  and  C_22 
ROOT
ATOM      1  C   UNL d   1      58.775  -0.944  29.128  0.00  0.00     0.085 C 
ENDROOT
BRANCH   1   2
ATOM      2  N   UNL d   1      59.357  -1.523  29.008  0.00  0.00    -0.249 N 
ATOM      3  C   UNL d   1      60.149  -1.292  28.996  0.00  0.00     0.208 A 
ATOM      4  N   UNL d   1      60.741  -1.863  28.877  0.00  0.00    -0.218 NA
ATOM      5  S   UNL d   1      60.336  -0.489  29.106  0.00  0.00    -0.038 SA
ATOM      6  C   UNL d   1      60.548  -2.653  28.770  0.00  0.00     0.088 A 
ATOM      7  C   UNL d   1      59.752  -2.885  28.782  0.00  0.00     0.074 A 
ATOM      8  C   UNL d   1      61.133  -3.217  28.652  0.00  0.00     0.019 A 
ATOM      9  C   UNL d   1      59.161  -2.324  28.900  0.00  0.00     0.268 A 
ATOM     10  C   UNL d   1      59.554  -3.678  28.675  0.00  0.00     0.006 A 
ATOM     11  O   UNL d   1      58.370  -2.556  28.911  0.00  0.00    -0.267 OA
ATOM     12  C   UNL d   1      60.144  -4.241  28.556  0.00  0.00     0.000 A 
ATOM     13  C   UNL d   1      60.936  -4.010  28.545  0.00  0.00     0.002 A 
ENDBRANCH   1   2
BRANCH   1  14
ATOM     14  C   UNL d   1      58.563  -0.731  29.902  0.00  0.00     0.024 C 
BRANCH  14  15
ATOM     15  C   UNL d   1      57.995  -0.138  30.026  0.00  0.00     0.064 C 
BRANCH  15  16
ATOM     16  C   UNL d   1      57.680  -0.018  30.789  0.00  0.00     0.279 C 
ATOM     17  N   UNL d   1      56.946  -0.318  30.983  0.00  0.00    -0.208 NA
ATOM     18  O   UNL d   1      58.121   0.411  31.358  0.00  0.00    -0.265 OA
BRANCH  17  19
ATOM     19  C   UNL d   1      56.629  -0.197  31.750  0.00  0.00     0.085 A 
ATOM     20  C   UNL d   1      56.471   0.564  32.032  0.00  0.00     0.021 A 
ATOM     21  C   UNL d   1      56.160   0.670  32.788  0.00  0.00     0.026 A 
ATOM     22  C   UNL d   1      56.006   0.010  33.266  0.00  0.00     0.094 A 
ATOM     23  C   UNL d   1      56.163  -0.750  32.988  0.00  0.00     0.026 A 
ATOM     24  C   UNL d   1      56.478  -0.851  32.220  0.00  0.00     0.021 A 
BRANCH  22  25
ATOM     25  O   UNL d   1      55.695   0.107  34.024  0.00  0.00    -0.328 OA
ATOM     26  C   UNL d   1      54.912   0.343  34.114  0.00  0.00     0.181 C 
ENDBRANCH  22  25
ENDBRANCH  17  19
ENDBRANCH  15  16
ENDBRANCH  14  15
ENDBRANCH   1  14
TORSDOF 6
ENDMDL
