MODEL 1
REMARK VINA RESULT:      -7.5      0.000      0.000
REMARK  4 active torsions:
REMARK  status: ('A' for Active; 'I' for Inactive)
REMARK    1  A    between atoms: N_3  and  C_1 
REMARK       I    between atoms: C_5  and  N_3 
REMARK    2  A    between atoms: C_7  and  C_5 
REMARK    3  A    between atoms: C_9  and  C_12 
REMARK    4  A    between atoms: O_18  and  C_9 
ROOT
ATOM      1  C   UNL d   1     -48.940  13.538  21.920  0.00  0.00     0.197 A 
ATOM      2  N   UNL d   1     -48.615  14.117  22.428  0.00  0.00    -0.221 NA
ATOM      3  S   UNL d   1     -48.338  13.012  21.723  0.00  0.00    -0.047 SA
ATOM      4  C   UNL d   1     -47.640  13.251  22.098  0.00  0.00     0.050 A 
ATOM      5  C   UNL d   1     -47.813  13.940  22.537  0.00  0.00     0.090 A 
ATOM      6  C   UNL d   1     -46.292  13.311  22.537  0.00  0.00     0.064 A 
ATOM      7  C   UNL d   1     -46.876  12.940  22.101  0.00  0.00     0.013 A 
ATOM      8  C   UNL d   1     -47.219  14.304  22.971  0.00  0.00     0.020 A 
ATOM      9  C   UNL d   1     -46.465  13.999  22.976  0.00  0.00     0.007 A 
ENDROOT
BRANCH   1  10
ATOM     10  N   UNL d   1     -49.725  13.504  21.665  0.00  0.00    -0.183 NA
ATOM     11  C   UNL d   1     -50.283  13.081  22.101  0.00  0.00     0.281 C 
ATOM     12  O   UNL d   1     -51.064  13.046  21.847  0.00  0.00    -0.265 OA
BRANCH  11  13
ATOM     13  C   UNL d   1     -50.056  12.692  22.792  0.00  0.00     0.058 A 
ATOM     14  C   UNL d   1     -49.955  12.688  23.611  0.00  0.00     0.005 A 
ATOM     15  C   UNL d   1     -49.765  12.021  23.169  0.00  0.00     0.005 A 
ENDBRANCH  11  13
ENDBRANCH   1  10
BRANCH   6  16
ATOM     16  C   UNL d   1     -45.521  13.010  22.549  0.00  0.00     0.296 C 
ATOM     17  O   UNL d   1     -45.309  12.433  23.087  0.00  0.00    -0.259 OA
BRANCH  16  18
ATOM     18  O   UNL d   1     -44.965  13.304  22.006  0.00  0.00    -0.296 OA
ATOM     19  C   UNL d   1     -44.266  12.892  21.879  0.00  0.00     0.185 C 
ENDBRANCH  16  18
ENDBRANCH   6  16
TORSDOF 4
ENDMDL
MODEL 2
REMARK VINA RESULT:      -7.1      1.475      2.013
REMARK  4 active torsions:
REMARK  status: ('A' for Active; 'I' for Inactive)
REMARK    1  A    between atoms: N_3  and  C_1 
REMARK       I    between atoms: C_5  and  N_3 
REMARK    2  A    between atoms: C_7  and  C_5 
REMARK    3  A    between atoms: C_9  and  C_12 
REMARK    4  A    between atoms: O_18  and  C_9 
ROOT
ATOM      1  C   UNL d   1     -49.583  13.239  22.108  0.00  0.00     0.197 A 
ATOM      2  N   UNL d   1     -49.745  12.602  22.624  0.00  0.00    -0.221 NA
ATOM      3  S   UNL d   1     -48.768  13.358  22.107  0.00  0.00    -0.047 SA
ATOM      4  C   UNL d   1     -48.415  12.807  22.613  0.00  0.00     0.050 A 
ATOM      5  C   UNL d   1     -49.025  12.336  22.936  0.00  0.00     0.090 A 
ATOM      6  C   UNL d   1     -47.454  12.069  23.351  0.00  0.00     0.064 A 
ATOM      7  C   UNL d   1     -47.630  12.669  22.825  0.00  0.00     0.013 A 
ATOM      8  C   UNL d   1     -48.836  11.736  23.464  0.00  0.00     0.020 A 
ATOM      9  C   UNL d   1     -48.063  11.598  23.674  0.00  0.00     0.007 A 
ENDROOT
BRANCH   1  10
ATOM     10  N   UNL d   1     -50.143  13.669  21.678  0.00  0.00    -0.183 NA
ATOM     11  C   UNL d   1     -50.489  14.341  22.008  0.00  0.00     0.281 C 
ATOM     12  O   UNL d   1     -51.046  14.769  21.580  0.00  0.00    -0.265 OA
BRANCH  11  13
ATOM     13  C   UNL d   1     -50.275  14.584  22.766  0.00  0.00     0.058 A 
ATOM     14  C   UNL d   1     -50.416  14.601  23.579  0.00  0.00     0.005 A 
ATOM     15  C   UNL d   1     -49.762  14.989  23.266  0.00  0.00     0.005 A 
ENDBRANCH  11  13
ENDBRANCH   1  10
BRANCH   6  16
ATOM     16  C   UNL d   1     -46.671  11.919  23.572  0.00  0.00     0.296 C 
ATOM     17  O   UNL d   1     -46.150  12.536  23.698  0.00  0.00    -0.259 OA
BRANCH  16  18
ATOM     18  O   UNL d   1     -46.422  11.132  23.665  0.00  0.00    -0.296 OA
ATOM     19  C   UNL d   1     -45.622  10.953  23.627  0.00  0.00     0.185 C 
ENDBRANCH  16  18
ENDBRANCH   6  16
TORSDOF 4
ENDMDL
MODEL 3
REMARK VINA RESULT:      -7.1      1.182      1.456
REMARK  4 active torsions:
REMARK  status: ('A' for Active; 'I' for Inactive)
REMARK    1  A    between atoms: N_3  and  C_1 
REMARK       I    between atoms: C_5  and  N_3 
REMARK    2  A    between atoms: C_7  and  C_5 
REMARK    3  A    between atoms: C_9  and  C_12 
REMARK    4  A    between atoms: O_18  and  C_9 
ROOT
ATOM      1  C   UNL d   1     -49.062  14.310  22.991  0.00  0.00     0.197 A 
ATOM      2  N   UNL d   1     -49.023  13.560  23.358  0.00  0.00    -0.221 NA
ATOM      3  S   UNL d   1     -48.315  14.481  22.690  0.00  0.00    -0.047 SA
ATOM      4  C   UNL d   1     -47.806  13.851  22.861  0.00  0.00     0.050 A 
ATOM      5  C   UNL d   1     -48.248  13.277  23.278  0.00  0.00     0.090 A 
ATOM      6  C   UNL d   1     -46.655  13.026  22.946  0.00  0.00     0.064 A 
ATOM      7  C   UNL d   1     -47.009  13.719  22.698  0.00  0.00     0.013 A 
ATOM      8  C   UNL d   1     -47.882  12.584  23.522  0.00  0.00     0.020 A 
ATOM      9  C   UNL d   1     -47.096  12.452  23.362  0.00  0.00     0.007 A 
ENDROOT
BRANCH   1  10
ATOM     10  N   UNL d   1     -49.733  14.790  22.942  0.00  0.00    -0.183 NA
ATOM     11  C   UNL d   1     -50.325  14.619  22.394  0.00  0.00     0.281 C 
ATOM     12  O   UNL d   1     -50.992  15.096  22.345  0.00  0.00    -0.265 OA
BRANCH  11  13
ATOM     13  C   UNL d   1     -50.246  13.967  21.894  0.00  0.00     0.058 A 
ATOM     14  C   UNL d   1     -50.400  13.174  21.722  0.00  0.00     0.005 A 
ATOM     15  C   UNL d   1     -49.955  13.631  21.201  0.00  0.00     0.005 A 
ENDBRANCH  11  13
ENDBRANCH   1  10
BRANCH   6  16
ATOM     16  C   UNL d   1     -45.856  12.881  22.789  0.00  0.00     0.296 C 
ATOM     17  O   UNL d   1     -45.439  12.332  23.229  0.00  0.00    -0.259 OA
BRANCH  16  18
ATOM     18  O   UNL d   1     -45.483  13.302  22.177  0.00  0.00    -0.296 OA
ATOM     19  C   UNL d   1     -44.737  13.070  21.923  0.00  0.00     0.185 C 
ENDBRANCH  16  18
ENDBRANCH   6  16
TORSDOF 4
ENDMDL
MODEL 4
REMARK VINA RESULT:      -7.0      1.467      4.102
REMARK  4 active torsions:
REMARK  status: ('A' for Active; 'I' for Inactive)
REMARK    1  A    between atoms: N_3  and  C_1 
REMARK       I    between atoms: C_5  and  N_3 
REMARK    2  A    between atoms: C_7  and  C_5 
REMARK    3  A    between atoms: C_9  and  C_12 
REMARK    4  A    between atoms: O_18  and  C_9 
ROOT
ATOM      1  C   UNL d   1     -47.728  12.284  22.996  0.00  0.00     0.197 A 
ATOM      2  N   UNL d   1     -47.960  12.229  22.196  0.00  0.00    -0.221 NA
ATOM      3  S   UNL d   1     -48.225  12.827  23.366  0.00  0.00    -0.047 SA
ATOM      4  C   UNL d   1     -48.766  13.115  22.810  0.00  0.00     0.050 A 
ATOM      5  C   UNL d   1     -48.601  12.742  22.081  0.00  0.00     0.090 A 
ATOM      6  C   UNL d   1     -49.829  13.833  22.202  0.00  0.00     0.064 A 
ATOM      7  C   UNL d   1     -49.383  13.660  22.865  0.00  0.00     0.013 A 
ATOM      8  C   UNL d   1     -49.056  12.923  21.422  0.00  0.00     0.020 A 
ATOM      9  C   UNL d   1     -49.664  13.460  21.473  0.00  0.00     0.007 A 
ENDROOT
BRANCH   1  10
ATOM     10  N   UNL d   1     -47.108  11.866  23.350  0.00  0.00    -0.183 NA
ATOM     11  C   UNL d   1     -46.340  12.166  23.327  0.00  0.00     0.281 C 
ATOM     12  O   UNL d   1     -45.725  11.751  23.679  0.00  0.00    -0.265 OA
BRANCH  11  13
ATOM     13  C   UNL d   1     -46.191  12.885  22.951  0.00  0.00     0.058 A 
ATOM     14  C   UNL d   1     -46.178  13.710  22.962  0.00  0.00     0.005 A 
ATOM     15  C   UNL d   1     -45.946  13.304  22.286  0.00  0.00     0.005 A 
ENDBRANCH  11  13
ENDBRANCH   1  10
BRANCH   6  16
ATOM     16  C   UNL d   1     -50.450  14.377  22.243  0.00  0.00     0.296 C 
ATOM     17  O   UNL d   1     -51.048  14.368  21.685  0.00  0.00    -0.259 OA
BRANCH  16  18
ATOM     18  O   UNL d   1     -50.457  14.935  22.859  0.00  0.00    -0.296 OA
ATOM     19  C   UNL d   1     -51.064  15.485  22.900  0.00  0.00     0.185 C 
ENDBRANCH  16  18
ENDBRANCH   6  16
TORSDOF 4
ENDMDL
MODEL 5
REMARK VINA RESULT:      -5.2      8.513      9.046
REMARK  4 active torsions:
REMARK  status: ('A' for Active; 'I' for Inactive)
REMARK    1  A    between atoms: N_3  and  C_1 
REMARK       I    between atoms: C_5  and  N_3 
REMARK    2  A    between atoms: C_7  and  C_5 
REMARK    3  A    between atoms: C_9  and  C_12 
REMARK    4  A    between atoms: O_18  and  C_9 
ROOT
ATOM      1  C   UNL d   1     -40.457  15.430  18.904  0.00  0.00     0.197 A 
ATOM      2  N   UNL d   1     -39.780  15.886  19.083  0.00  0.00    -0.221 NA
ATOM      3  S   UNL d   1     -40.600  14.931  19.544  0.00  0.00    -0.047 SA
ATOM      4  C   UNL d   1     -40.024  15.067  20.123  0.00  0.00     0.050 A 
ATOM      5  C   UNL d   1     -39.513  15.662  19.835  0.00  0.00     0.090 A 
ATOM      6  C   UNL d   1     -39.262  14.991  21.318  0.00  0.00     0.064 A 
ATOM      7  C   UNL d   1     -39.893  14.734  20.866  0.00  0.00     0.013 A 
ATOM      8  C   UNL d   1     -38.882  15.912  20.297  0.00  0.00     0.020 A 
ATOM      9  C   UNL d   1     -38.752  15.585  21.030  0.00  0.00     0.007 A 
ENDROOT
BRANCH   1  10
ATOM     10  N   UNL d   1     -40.901  15.474  18.208  0.00  0.00    -0.183 NA
ATOM     11  C   UNL d   1     -40.697  15.009  17.558  0.00  0.00     0.281 C 
ATOM     12  O   UNL d   1     -41.138  15.054  16.866  0.00  0.00    -0.265 OA
BRANCH  11  13
ATOM     13  C   UNL d   1     -40.050  14.500  17.604  0.00  0.00     0.058 A 
ATOM     14  C   UNL d   1     -39.246  14.350  17.486  0.00  0.00     0.005 A 
ATOM     15  C   UNL d   1     -39.733  13.766  17.800  0.00  0.00     0.005 A 
ENDBRANCH  11  13
ENDBRANCH   1  10
BRANCH   6  16
ATOM     16  C   UNL d   1     -39.120  14.666  22.065  0.00  0.00     0.296 C 
ATOM     17  O   UNL d   1     -39.185  15.126  22.737  0.00  0.00    -0.259 OA
BRANCH  16  18
ATOM     18  O   UNL d   1     -38.909  13.864  22.122  0.00  0.00    -0.296 OA
ATOM     19  C   UNL d   1     -38.752  13.539  22.859  0.00  0.00     0.185 C 
ENDBRANCH  16  18
ENDBRANCH   6  16
TORSDOF 4
ENDMDL
MODEL 6
REMARK VINA RESULT:      -5.0      8.022      9.958
REMARK  4 active torsions:
REMARK  status: ('A' for Active; 'I' for Inactive)
REMARK    1  A    between atoms: N_3  and  C_1 
REMARK       I    between atoms: C_5  and  N_3 
REMARK    2  A    between atoms: C_7  and  C_5 
REMARK    3  A    between atoms: C_9  and  C_12 
REMARK    4  A    between atoms: O_18  and  C_9 
ROOT
ATOM      1  C   UNL d   1     -40.364  14.351  18.714  0.00  0.00     0.197 A 
ATOM      2  N   UNL d   1     -39.818  13.719  18.750  0.00  0.00    -0.221 NA
ATOM      3  S   UNL d   1     -40.244  14.745  18.001  0.00  0.00    -0.047 SA
ATOM      4  C   UNL d   1     -39.632  14.372  17.588  0.00  0.00     0.050 A 
ATOM      5  C   UNL d   1     -39.366  13.733  18.055  0.00  0.00     0.090 A 
ATOM      6  C   UNL d   1     -38.673  14.045  16.594  0.00  0.00     0.064 A 
ATOM      7  C   UNL d   1     -39.281  14.523  16.857  0.00  0.00     0.013 A 
ATOM      8  C   UNL d   1     -38.755  13.258  17.781  0.00  0.00     0.020 A 
ATOM      9  C   UNL d   1     -38.408  13.405  17.061  0.00  0.00     0.007 A 
ENDROOT
BRANCH   1  10
ATOM     10  N   UNL d   1     -40.922  14.541  19.293  0.00  0.00    -0.183 NA
ATOM     11  C   UNL d   1     -40.713  15.030  19.924  0.00  0.00     0.281 C 
ATOM     12  O   UNL d   1     -41.268  15.220  20.500  0.00  0.00    -0.265 OA
BRANCH  11  13
ATOM     13  C   UNL d   1     -39.946  15.328  19.976  0.00  0.00     0.058 A 
ATOM     14  C   UNL d   1     -39.390  15.911  19.797  0.00  0.00     0.005 A 
ATOM     15  C   UNL d   1     -39.172  15.259  20.247  0.00  0.00     0.005 A 
ENDBRANCH  11  13
ENDBRANCH   1  10
BRANCH   6  16
ATOM     16  C   UNL d   1     -38.313  14.185  15.864  0.00  0.00     0.296 C 
ATOM     17  O   UNL d   1     -37.940  14.897  15.714  0.00  0.00    -0.259 OA
BRANCH  16  18
ATOM     18  O   UNL d   1     -38.334  13.591  15.283  0.00  0.00    -0.296 OA
ATOM     19  C   UNL d   1     -37.969  13.719  14.559  0.00  0.00     0.185 C 
ENDBRANCH  16  18
ENDBRANCH   6  16
TORSDOF 4
ENDMDL
MODEL 7
REMARK VINA RESULT:      -5.0      7.912      9.190
REMARK  4 active torsions:
REMARK  status: ('A' for Active; 'I' for Inactive)
REMARK    1  A    between atoms: N_3  and  C_1 
REMARK       I    between atoms: C_5  and  N_3 
REMARK    2  A    between atoms: C_7  and  C_5 
REMARK    3  A    between atoms: C_9  and  C_12 
REMARK    4  A    between atoms: O_18  and  C_9 
ROOT
ATOM      1  C   UNL d   1     -39.270  15.250  21.630  0.00  0.00     0.197 A 
ATOM      2  N   UNL d   1     -40.053  14.961  21.661  0.00  0.00    -0.221 NA
ATOM      3  S   UNL d   1     -39.040  15.270  20.840  0.00  0.00    -0.047 SA
ATOM      4  C   UNL d   1     -39.667  14.998  20.372  0.00  0.00     0.050 A 
ATOM      5  C   UNL d   1     -40.298  14.806  20.884  0.00  0.00     0.090 A 
ATOM      6  C   UNL d   1     -40.454  14.612  19.257  0.00  0.00     0.064 A 
ATOM      7  C   UNL d   1     -39.750  14.899  19.558  0.00  0.00     0.013 A 
ATOM      8  C   UNL d   1     -41.000  14.519  20.571  0.00  0.00     0.020 A 
ATOM      9  C   UNL d   1     -41.085  14.420  19.768  0.00  0.00     0.007 A 
ENDROOT
BRANCH   1  10
ATOM     10  N   UNL d   1     -38.811  15.475  22.281  0.00  0.00    -0.183 NA
ATOM     11  C   UNL d   1     -38.396  14.906  22.710  0.00  0.00     0.281 C 
ATOM     12  O   UNL d   1     -37.940  15.129  23.356  0.00  0.00    -0.265 OA
BRANCH  11  13
ATOM     13  C   UNL d   1     -38.439  14.112  22.490  0.00  0.00     0.058 A 
ATOM     14  C   UNL d   1     -38.797  13.371  22.550  0.00  0.00     0.005 A 
ATOM     15  C   UNL d   1     -38.155  13.479  22.047  0.00  0.00     0.005 A 
ENDBRANCH  11  13
ENDBRANCH   1  10
BRANCH   6  16
ATOM     16  C   UNL d   1     -40.552  14.508  18.442  0.00  0.00     0.296 C 
ATOM     17  O   UNL d   1     -40.665  13.761  18.130  0.00  0.00    -0.259 OA
BRANCH  16  18
ATOM     18  O   UNL d   1     -40.534  15.174  17.946  0.00  0.00    -0.296 OA
ATOM     19  C   UNL d   1     -40.668  15.082  17.141  0.00  0.00     0.185 C 
ENDBRANCH  16  18
ENDBRANCH   6  16
TORSDOF 4
ENDMDL
MODEL 8
REMARK VINA RESULT:      -4.9      7.959     10.056
REMARK  4 active torsions:
REMARK  status: ('A' for Active; 'I' for Inactive)
REMARK    1  A    between atoms: N_3  and  C_1 
REMARK       I    between atoms: C_5  and  N_3 
REMARK    2  A    between atoms: C_7  and  C_5 
REMARK    3  A    between atoms: C_9  and  C_12 
REMARK    4  A    between atoms: O_18  and  C_9 
ROOT
ATOM      1  C   UNL d   1     -39.030  13.691  17.473  0.00  0.00     0.197 A 
ATOM      2  N   UNL d   1     -38.541  13.695  18.150  0.00  0.00    -0.221 NA
ATOM      3  S   UNL d   1     -39.775  13.959  17.699  0.00  0.00    -0.047 SA
ATOM      4  C   UNL d   1     -39.762  14.132  18.509  0.00  0.00     0.050 A 
ATOM      5  C   UNL d   1     -38.993  13.967  18.789  0.00  0.00     0.090 A 
ATOM      6  C   UNL d   1     -40.153  14.530  19.813  0.00  0.00     0.064 A 
ATOM      7  C   UNL d   1     -40.339  14.414  19.026  0.00  0.00     0.013 A 
ATOM      8  C   UNL d   1     -38.817  14.088  19.582  0.00  0.00     0.020 A 
ATOM      9  C   UNL d   1     -39.384  14.366  20.094  0.00  0.00     0.007 A 
ENDROOT
BRANCH   1  10
ATOM     10  N   UNL d   1     -38.803  13.459  16.712  0.00  0.00    -0.183 NA
ATOM     11  C   UNL d   1     -38.485  14.012  16.189  0.00  0.00     0.281 C 
ATOM     12  O   UNL d   1     -38.259  13.781  15.433  0.00  0.00    -0.265 OA
BRANCH  11  13
ATOM     13  C   UNL d   1     -38.395  14.797  16.425  0.00  0.00     0.058 A 
ATOM     14  C   UNL d   1     -37.940  15.394  16.767  0.00  0.00     0.005 A 
ATOM     15  C   UNL d   1     -38.697  15.560  16.491  0.00  0.00     0.005 A 
ENDBRANCH  11  13
ENDBRANCH   1  10
BRANCH   6  16
ATOM     16  C   UNL d   1     -40.721  14.813  20.343  0.00  0.00     0.296 C 
ATOM     17  O   UNL d   1     -41.159  14.294  20.799  0.00  0.00    -0.259 OA
BRANCH  16  18
ATOM     18  O   UNL d   1     -40.842  15.632  20.406  0.00  0.00    -0.296 OA
ATOM     19  C   UNL d   1     -41.387  15.921  20.948  0.00  0.00     0.185 C 
ENDBRANCH  16  18
ENDBRANCH   6  16
TORSDOF 4
ENDMDL
