MODEL 1
REMARK VINA RESULT:      -7.2      0.000      0.000
REMARK  4 active torsions:
REMARK  status: ('A' for Active; 'I' for Inactive)
REMARK    1  A    between atoms: C_7  and  N_1 
REMARK    2  A    between atoms: C_6  and  C_2 
REMARK    3  A    between atoms: C_17  and  C_6 
REMARK    4  A    between atoms: C_8  and  C_7 
ROOT
ATOM      1  N   UNL d   1     -48.370  13.764  23.000  0.00  0.00    -0.303 N 
ATOM      2  C   UNL d   1     -47.028  13.746  22.875  0.00  0.00     0.057 A 
ATOM      3  C   UNL d   1     -47.678  13.289  23.068  0.00  0.00     0.067 A 
ATOM      4  C   UNL d   1     -47.301  14.502  22.686  0.00  0.00     0.022 A 
ATOM      5  C   UNL d   1     -48.139  14.493  22.770  0.00  0.00     0.064 A 
ATOM      6  C   UNL d   1     -47.650  12.488  23.293  0.00  0.00     0.019 C 
ATOM      7  C   UNL d   1     -48.635  15.146  22.633  0.00  0.00     0.019 C 
ENDROOT
BRANCH   1   8
ATOM      8  C   UNL d   1     -49.139  13.522  23.144  0.00  0.00     0.105 C 
BRANCH   8   9
ATOM      9  C   UNL d   1     -49.607  13.199  22.523  0.00  0.00     0.118 A 
ATOM     10  O   UNL d   1     -49.480  13.104  21.725  0.00  0.00    -0.304 OA
ATOM     11  C   UNL d   1     -50.159  12.749  21.431  0.00  0.00     0.123 A 
ATOM     12  C   UNL d   1     -50.686  12.625  22.002  0.00  0.00     0.029 A 
ATOM     13  C   UNL d   1     -50.350  12.906  22.708  0.00  0.00     0.028 A 
ENDBRANCH   8   9
ENDBRANCH   1   8
BRANCH   2  14
ATOM     14  C   UNL d   1     -46.268  13.503  22.870  0.00  0.00     0.208 C 
ATOM     15  O   UNL d   1     -45.869  13.394  23.573  0.00  0.00    -0.286 OA
BRANCH  14  16
ATOM     16  C   UNL d   1     -45.876  13.359  22.161  0.00  0.00     0.110 C 
ATOM     17 CL   UNL d   1     -45.037  13.269  22.142  0.00  0.00    -0.078 Cl
ENDBRANCH  14  16
ENDBRANCH   2  14
TORSDOF 4
ENDMDL
MODEL 2
REMARK VINA RESULT:      -7.1      0.563      1.389
REMARK  4 active torsions:
REMARK  status: ('A' for Active; 'I' for Inactive)
REMARK    1  A    between atoms: C_7  and  N_1 
REMARK    2  A    between atoms: C_6  and  C_2 
REMARK    3  A    between atoms: C_17  and  C_6 
REMARK    4  A    between atoms: C_8  and  C_7 
ROOT
ATOM      1  N   UNL d   1     -48.313  12.819  23.293  0.00  0.00    -0.303 N 
ATOM      2  C   UNL d   1     -46.983  12.967  23.130  0.00  0.00     0.057 A 
ATOM      3  C   UNL d   1     -47.700  13.357  23.083  0.00  0.00     0.067 A 
ATOM      4  C   UNL d   1     -47.135  12.191  23.366  0.00  0.00     0.022 A 
ATOM      5  C   UNL d   1     -47.969  12.119  23.463  0.00  0.00     0.064 A 
ATOM      6  C   UNL d   1     -47.798  14.154  22.864  0.00  0.00     0.019 C 
ATOM      7  C   UNL d   1     -48.359  11.423  23.698  0.00  0.00     0.019 C 
ENDROOT
BRANCH   1   8
ATOM      8  C   UNL d   1     -49.115  12.984  23.319  0.00  0.00     0.105 C 
BRANCH   8   9
ATOM      9  C   UNL d   1     -49.593  12.878  22.635  0.00  0.00     0.118 A 
ATOM     10  O   UNL d   1     -49.445  12.572  21.896  0.00  0.00    -0.304 OA
ATOM     11  C   UNL d   1     -50.152  12.628  21.483  0.00  0.00     0.123 A 
ATOM     12  C   UNL d   1     -50.717  12.949  21.928  0.00  0.00     0.029 A 
ATOM     13  C   UNL d   1     -50.378  13.115  22.669  0.00  0.00     0.028 A 
ENDBRANCH   8   9
ENDBRANCH   1   8
BRANCH   2  14
ATOM     14  C   UNL d   1     -46.267  13.282  22.975  0.00  0.00     0.208 C 
ATOM     15  O   UNL d   1     -45.867  13.694  23.554  0.00  0.00    -0.286 OA
BRANCH  14  16
ATOM     16  C   UNL d   1     -45.921  13.197  22.233  0.00  0.00     0.110 C 
ATOM     17 CL   UNL d   1     -45.096  13.337  22.122  0.00  0.00    -0.078 Cl
ENDBRANCH  14  16
ENDBRANCH   2  14
TORSDOF 4
ENDMDL
MODEL 3
REMARK VINA RESULT:      -6.8      1.346      2.170
REMARK  4 active torsions:
REMARK  status: ('A' for Active; 'I' for Inactive)
REMARK    1  A    between atoms: C_7  and  N_1 
REMARK    2  A    between atoms: C_6  and  C_2 
REMARK    3  A    between atoms: C_17  and  C_6 
REMARK    4  A    between atoms: C_8  and  C_7 
ROOT
ATOM      1  N   UNL d   1     -48.619  12.928  22.858  0.00  0.00    -0.303 N 
ATOM      2  C   UNL d   1     -47.570  12.275  23.396  0.00  0.00     0.057 A 
ATOM      3  C   UNL d   1     -47.779  12.880  22.888  0.00  0.00     0.067 A 
ATOM      4  C   UNL d   1     -48.267  11.941  23.688  0.00  0.00     0.022 A 
ATOM      5  C   UNL d   1     -48.909  12.362  23.340  0.00  0.00     0.064 A 
ATOM      6  C   UNL d   1     -47.242  13.362  22.473  0.00  0.00     0.019 C 
ATOM      7  C   UNL d   1     -49.712  12.203  23.485  0.00  0.00     0.019 C 
ENDROOT
BRANCH   1   8
ATOM      8  C   UNL d   1     -49.058  13.459  22.415  0.00  0.00     0.105 C 
BRANCH   8   9
ATOM      9  C   UNL d   1     -49.280  14.203  22.739  0.00  0.00     0.118 A 
ATOM     10  O   UNL d   1     -49.273  14.503  23.495  0.00  0.00    -0.304 OA
ATOM     11  C   UNL d   1     -49.562  15.268  23.436  0.00  0.00     0.123 A 
ATOM     12  C   UNL d   1     -49.742  15.448  22.691  0.00  0.00     0.029 A 
ATOM     13  C   UNL d   1     -49.569  14.779  22.231  0.00  0.00     0.028 A 
ENDBRANCH   8   9
ENDBRANCH   1   8
BRANCH   2  14
ATOM     14  C   UNL d   1     -46.827  12.049  23.578  0.00  0.00     0.208 C 
ATOM     15  O   UNL d   1     -46.247  12.610  23.698  0.00  0.00    -0.286 OA
BRANCH  14  16
ATOM     16  C   UNL d   1     -46.633  11.253  23.647  0.00  0.00     0.110 C 
ATOM     17 CL   UNL d   1     -45.828  11.003  23.657  0.00  0.00    -0.078 Cl
ENDBRANCH  14  16
ENDBRANCH   2  14
TORSDOF 4
ENDMDL
MODEL 4
REMARK VINA RESULT:      -6.5      2.016      3.609
REMARK  4 active torsions:
REMARK  status: ('A' for Active; 'I' for Inactive)
REMARK    1  A    between atoms: C_7  and  N_1 
REMARK    2  A    between atoms: C_6  and  C_2 
REMARK    3  A    between atoms: C_17  and  C_6 
REMARK    4  A    between atoms: C_8  and  C_7 
ROOT
ATOM      1  N   UNL d   1     -48.680  13.577  22.117  0.00  0.00    -0.303 N 
ATOM      2  C   UNL d   1     -49.726  14.334  22.504  0.00  0.00     0.057 A 
ATOM      3  C   UNL d   1     -48.927  14.353  22.335  0.00  0.00     0.067 A 
ATOM      4  C   UNL d   1     -49.987  13.557  22.397  0.00  0.00     0.022 A 
ATOM      5  C   UNL d   1     -49.320  13.102  22.156  0.00  0.00     0.064 A 
ATOM      6  C   UNL d   1     -48.446  15.030  22.373  0.00  0.00     0.019 C 
ATOM      7  C   UNL d   1     -49.340  12.288  21.988  0.00  0.00     0.019 C 
ENDROOT
BRANCH   1   8
ATOM      8  C   UNL d   1     -47.922  13.352  21.905  0.00  0.00     0.105 C 
BRANCH   8   9
ATOM      9  C   UNL d   1     -47.368  13.112  22.492  0.00  0.00     0.118 A 
ATOM     10  O   UNL d   1     -47.452  12.834  23.252  0.00  0.00    -0.304 OA
ATOM     11  C   UNL d   1     -46.691  12.701  23.527  0.00  0.00     0.123 A 
ATOM     12  C   UNL d   1     -46.154  12.883  22.980  0.00  0.00     0.029 A 
ATOM     13  C   UNL d   1     -46.569  13.148  22.311  0.00  0.00     0.028 A 
ENDBRANCH   8   9
ENDBRANCH   1   8
BRANCH   2  14
ATOM     14  C   UNL d   1     -50.173  14.954  22.732  0.00  0.00     0.208 C 
ATOM     15  O   UNL d   1     -50.341  15.552  22.204  0.00  0.00    -0.286 OA
BRANCH  14  16
ATOM     16  C   UNL d   1     -50.469  15.002  23.498  0.00  0.00     0.110 C 
ATOM     17 CL   UNL d   1     -51.064  15.566  23.698  0.00  0.00    -0.078 Cl
ENDBRANCH  14  16
ENDBRANCH   2  14
TORSDOF 4
ENDMDL
MODEL 5
REMARK VINA RESULT:      -6.1      1.717      3.616
REMARK  4 active torsions:
REMARK  status: ('A' for Active; 'I' for Inactive)
REMARK    1  A    between atoms: C_7  and  N_1 
REMARK    2  A    between atoms: C_6  and  C_2 
REMARK    3  A    between atoms: C_17  and  C_6 
REMARK    4  A    between atoms: C_8  and  C_7 
ROOT
ATOM      1  N   UNL d   1     -48.190  12.847  23.317  0.00  0.00    -0.303 N 
ATOM      2  C   UNL d   1     -49.453  12.847  22.847  0.00  0.00     0.057 A 
ATOM      3  C   UNL d   1     -48.817  13.328  23.029  0.00  0.00     0.067 A 
ATOM      4  C   UNL d   1     -49.234  12.069  23.016  0.00  0.00     0.022 A 
ATOM      5  C   UNL d   1     -48.444  12.090  23.307  0.00  0.00     0.064 A 
ATOM      6  C   UNL d   1     -48.803  14.156  22.941  0.00  0.00     0.019 C 
ATOM      7  C   UNL d   1     -48.010  11.422  23.544  0.00  0.00     0.019 C 
ENDROOT
BRANCH   1   8
ATOM      8  C   UNL d   1     -47.453  13.107  23.562  0.00  0.00     0.105 C 
BRANCH   8   9
ATOM      9  C   UNL d   1     -46.829  13.203  23.005  0.00  0.00     0.118 A 
ATOM     10  O   UNL d   1     -46.706  12.917  22.254  0.00  0.00    -0.304 OA
ATOM     11  C   UNL d   1     -45.983  13.221  22.013  0.00  0.00     0.123 A 
ATOM     12  C   UNL d   1     -45.663  13.672  22.573  0.00  0.00     0.029 A 
ATOM     13  C   UNL d   1     -46.190  13.673  23.215  0.00  0.00     0.028 A 
ENDBRANCH   8   9
ENDBRANCH   1   8
BRANCH   2  14
ATOM     14  C   UNL d   1     -50.156  13.088  22.558  0.00  0.00     0.208 C 
ATOM     15  O   UNL d   1     -50.729  13.374  23.063  0.00  0.00    -0.286 OA
BRANCH  14  16
ATOM     16  C   UNL d   1     -50.316  13.053  21.751  0.00  0.00     0.110 C 
ATOM     17 CL   UNL d   1     -51.064  13.294  21.447  0.00  0.00    -0.078 Cl
ENDBRANCH  14  16
ENDBRANCH   2  14
TORSDOF 4
ENDMDL
