MODEL 1
REMARK VINA RESULT:      -2.3      0.000      0.000
REMARK  4 active torsions:
REMARK  status: ('A' for Active; 'I' for Inactive)
REMARK    1  A    between atoms: C_2  and  S_1 
REMARK    2  A    between atoms: N_3  and  S_1 
REMARK    3  A    between atoms: C_5  and  C_11 
REMARK    4  A    between atoms: O_20  and  C_8 
ROOT
ATOM      1  S   UNL d   1      32.615  21.773 -21.025  0.00  0.00     0.273 S 
ATOM      2  O   UNL d   1      33.241  22.194 -21.369  0.00  0.00    -0.200 OA
ATOM      3  O   UNL d   1      31.989  21.355 -20.677  0.00  0.00    -0.200 OA
ENDROOT
BRANCH   1   4
ATOM      4  C   UNL d   1      32.508  22.390 -20.495  0.00  0.00     0.128 A 
ATOM      5  C   UNL d   1      32.778  22.323 -19.720  0.00  0.00     0.044 A 
ATOM      6  C   UNL d   1      32.670  22.944 -19.187  0.00  0.00     0.141 A 
ATOM      7  F   UNL d   1      32.942  22.874 -18.409  0.00  0.00    -0.204 F 
ATOM      8  C   UNL d   1      32.290  23.630 -19.436  0.00  0.00     0.032 A 
ATOM      9  C   UNL d   1      32.017  23.700 -20.214  0.00  0.00     0.027 A 
ATOM     10  C   UNL d   1      32.127  23.080 -20.741  0.00  0.00     0.106 A 
BRANCH  10  11
ATOM     11  O   UNL d   1      31.856  23.142 -21.524  0.00  0.00    -0.327 OA
ATOM     12  C   UNL d   1      31.250  23.677 -21.707  0.00  0.00     0.181 C 
ENDBRANCH  10  11
ENDBRANCH   1   4
BRANCH   1  13
ATOM     13  N   UNL d   1      32.724  21.150 -21.559  0.00  0.00    -0.229 N 
ATOM     14  C   UNL d   1      32.473  20.380 -21.368  0.00  0.00     0.092 A 
ATOM     15  C   UNL d   1      32.582  19.756 -21.903  0.00  0.00     0.025 A 
ATOM     16  C   UNL d   1      32.942  19.902 -22.629  0.00  0.00     0.062 A 
ATOM     17  C   UNL d   1      33.195  20.659 -22.831  0.00  0.00     0.025 A 
ATOM     18  C   UNL d   1      33.086  21.283 -22.296  0.00  0.00     0.092 A 
BRANCH  16  19
ATOM     19  C   UNL d   1      33.050  19.278 -23.164  0.00  0.00     0.297 C 
ATOM     20  O   UNL d   1      32.979  19.413 -23.977  0.00  0.00    -0.264 OA
ATOM     21  N   UNL d   1      33.232  18.515 -22.891  0.00  0.00    -0.102 N 
ENDBRANCH  16  19
ENDBRANCH   1  13
TORSDOF 4
ENDMDL
MODEL 2
REMARK VINA RESULT:      -2.0      5.089      6.867
REMARK  4 active torsions:
REMARK  status: ('A' for Active; 'I' for Inactive)
REMARK    1  A    between atoms: C_2  and  S_1 
REMARK    2  A    between atoms: N_3  and  S_1 
REMARK    3  A    between atoms: C_5  and  C_11 
REMARK    4  A    between atoms: O_20  and  C_8 
ROOT
ATOM      1  S   UNL d   1      30.800  16.528 -24.071  0.00  0.00     0.273 S 
ATOM      2  O   UNL d   1      31.007  16.414 -23.276  0.00  0.00    -0.200 OA
ATOM      3  O   UNL d   1      30.598  16.642 -24.866  0.00  0.00    -0.200 OA
ENDROOT
BRANCH   1   4
ATOM      4  C   UNL d   1      31.596  16.618 -24.252  0.00  0.00     0.128 A 
ATOM      5  C   UNL d   1      32.018  15.993 -24.583  0.00  0.00     0.044 A 
ATOM      6  C   UNL d   1      32.818  16.083 -24.764  0.00  0.00     0.141 A 
ATOM      7  F   UNL d   1      33.240  15.454 -25.097  0.00  0.00    -0.204 F 
ATOM      8  C   UNL d   1      33.190  16.801 -24.613  0.00  0.00     0.032 A 
ATOM      9  C   UNL d   1      32.767  17.430 -24.281  0.00  0.00     0.027 A 
ATOM     10  C   UNL d   1      31.972  17.336 -24.101  0.00  0.00     0.106 A 
BRANCH  10  11
ATOM     11  O   UNL d   1      31.541  17.963 -23.767  0.00  0.00    -0.327 OA
ATOM     12  C   UNL d   1      31.854  18.730 -23.782  0.00  0.00     0.181 C 
ENDBRANCH  10  11
ENDBRANCH   1   4
BRANCH   1  13
ATOM     13  N   UNL d   1      29.998  16.437 -23.888  0.00  0.00    -0.229 N 
ATOM     14  C   UNL d   1      29.424  16.913 -24.257  0.00  0.00     0.092 A 
ATOM     15  C   UNL d   1      28.620  16.822 -24.074  0.00  0.00     0.025 A 
ATOM     16  C   UNL d   1      28.391  16.255 -23.522  0.00  0.00     0.062 A 
ATOM     17  C   UNL d   1      28.948  15.778 -23.150  0.00  0.00     0.025 A 
ATOM     18  C   UNL d   1      29.752  15.869 -23.333  0.00  0.00     0.092 A 
BRANCH  16  19
ATOM     19  C   UNL d   1      27.587  16.165 -23.340  0.00  0.00     0.297 C 
ATOM     20  O   UNL d   1      27.207  16.719 -22.857  0.00  0.00    -0.264 OA
ATOM     21  N   UNL d   1      27.157  15.519 -23.638  0.00  0.00    -0.102 N 
ENDBRANCH  16  19
ENDBRANCH   1  13
TORSDOF 4
ENDMDL
MODEL 3
REMARK VINA RESULT:      -1.8      3.098      5.554
REMARK  4 active torsions:
REMARK  status: ('A' for Active; 'I' for Inactive)
REMARK    1  A    between atoms: C_2  and  S_1 
REMARK    2  A    between atoms: N_3  and  S_1 
REMARK    3  A    between atoms: C_5  and  C_11 
REMARK    4  A    between atoms: O_20  and  C_8 
ROOT
ATOM      1  S   UNL d   1      32.413  18.144 -23.648  0.00  0.00     0.273 S 
ATOM      2  O   UNL d   1      32.297  18.537 -24.369  0.00  0.00    -0.200 OA
ATOM      3  O   UNL d   1      32.528  17.746 -22.930  0.00  0.00    -0.200 OA
ENDROOT
BRANCH   1   4
ATOM      4  C   UNL d   1      32.231  17.435 -24.021  0.00  0.00     0.128 A 
ATOM      5  C   UNL d   1      32.824  16.884 -24.175  0.00  0.00     0.044 A 
ATOM      6  C   UNL d   1      32.641  16.172 -24.549  0.00  0.00     0.141 A 
ATOM      7  F   UNL d   1      33.238  15.620 -24.703  0.00  0.00    -0.204 F 
ATOM      8  C   UNL d   1      31.863  16.016 -24.768  0.00  0.00     0.032 A 
ATOM      9  C   UNL d   1      31.266  16.568 -24.614  0.00  0.00     0.027 A 
ATOM     10  C   UNL d   1      31.452  17.276 -24.241  0.00  0.00     0.106 A 
BRANCH  10  11
ATOM     11  O   UNL d   1      30.858  17.835 -24.083  0.00  0.00    -0.327 OA
ATOM     12  C   UNL d   1      30.092  17.714 -24.375  0.00  0.00     0.181 C 
ENDBRANCH  10  11
ENDBRANCH   1   4
BRANCH   1  13
ATOM     13  N   UNL d   1      32.596  18.858 -23.273  0.00  0.00    -0.229 N 
ATOM     14  C   UNL d   1      32.946  19.482 -23.697  0.00  0.00     0.092 A 
ATOM     15  C   UNL d   1      33.130  20.197 -23.321  0.00  0.00     0.025 A 
ATOM     16  C   UNL d   1      32.964  20.289 -22.520  0.00  0.00     0.062 A 
ATOM     17  C   UNL d   1      32.617  19.681 -22.088  0.00  0.00     0.025 A 
ATOM     18  C   UNL d   1      32.434  18.965 -22.464  0.00  0.00     0.092 A 
BRANCH  16  19
ATOM     19  C   UNL d   1      33.147  21.005 -22.144  0.00  0.00     0.297 C 
ATOM     20  O   UNL d   1      33.240  21.029 -21.323  0.00  0.00    -0.264 OA
ATOM     21  N   UNL d   1      33.240  21.703 -22.586  0.00  0.00    -0.102 N 
ENDBRANCH  16  19
ENDBRANCH   1  13
TORSDOF 4
ENDMDL
MODEL 4
REMARK VINA RESULT:      -1.0      3.786      6.077
REMARK  4 active torsions:
REMARK  status: ('A' for Active; 'I' for Inactive)
REMARK    1  A    between atoms: C_2  and  S_1 
REMARK    2  A    between atoms: N_3  and  S_1 
REMARK    3  A    between atoms: C_5  and  C_11 
REMARK    4  A    between atoms: O_20  and  C_8 
ROOT
ATOM      1  S   UNL d   1      31.732  17.686 -24.104  0.00  0.00     0.273 S 
ATOM      2  O   UNL d   1      31.714  17.802 -24.925  0.00  0.00    -0.200 OA
ATOM      3  O   UNL d   1      31.748  17.564 -23.284  0.00  0.00    -0.200 OA
ENDROOT
BRANCH   1   4
ATOM      4  C   UNL d   1      31.401  16.943 -24.216  0.00  0.00     0.128 A 
ATOM      5  C   UNL d   1      30.582  16.853 -24.235  0.00  0.00     0.044 A 
ATOM      6  C   UNL d   1      30.249  16.106 -24.347  0.00  0.00     0.141 A 
ATOM      7  F   UNL d   1      29.427  16.018 -24.366  0.00  0.00    -0.204 F 
ATOM      8  C   UNL d   1      30.741  15.453 -24.440  0.00  0.00     0.032 A 
ATOM      9  C   UNL d   1      31.563  15.541 -24.421  0.00  0.00     0.027 A 
ATOM     10  C   UNL d   1      31.890  16.285 -24.309  0.00  0.00     0.106 A 
BRANCH  10  11
ATOM     11  O   UNL d   1      32.715  16.382 -24.289  0.00  0.00    -0.327 OA
ATOM     12  C   UNL d   1      33.205  15.716 -24.228  0.00  0.00     0.181 C 
ENDBRANCH  10  11
ENDBRANCH   1   4
BRANCH   1  13
ATOM     13  N   UNL d   1      32.066  18.435 -23.992  0.00  0.00    -0.229 N 
ATOM     14  C   UNL d   1      32.168  18.742 -23.226  0.00  0.00     0.092 A 
ATOM     15  C   UNL d   1      32.503  19.492 -23.113  0.00  0.00     0.025 A 
ATOM     16  C   UNL d   1      32.735  19.935 -23.767  0.00  0.00     0.062 A 
ATOM     17  C   UNL d   1      32.639  19.644 -24.531  0.00  0.00     0.025 A 
ATOM     18  C   UNL d   1      32.305  18.894 -24.643  0.00  0.00     0.092 A 
BRANCH  16  19
ATOM     19  C   UNL d   1      33.069  20.685 -23.654  0.00  0.00     0.297 C 
ATOM     20  O   UNL d   1      33.235  20.954 -22.890  0.00  0.00    -0.264 OA
ATOM     21  N   UNL d   1      33.241  21.173 -24.305  0.00  0.00    -0.102 N 
ENDBRANCH  16  19
ENDBRANCH   1  13
TORSDOF 4
ENDMDL
MODEL 5
REMARK VINA RESULT:      -0.8      1.959      4.155
REMARK  4 active torsions:
REMARK  status: ('A' for Active; 'I' for Inactive)
REMARK    1  A    between atoms: C_2  and  S_1 
REMARK    2  A    between atoms: N_3  and  S_1 
REMARK    3  A    between atoms: C_5  and  C_11 
REMARK    4  A    between atoms: O_20  and  C_8 
ROOT
ATOM      1  S   UNL d   1      32.825  20.424 -21.934  0.00  0.00     0.273 S 
ATOM      2  O   UNL d   1      32.411  20.870 -22.497  0.00  0.00    -0.200 OA
ATOM      3  O   UNL d   1      33.240  19.974 -21.375  0.00  0.00    -0.200 OA
ENDROOT
BRANCH   1   4
ATOM      4  C   UNL d   1      32.908  19.824 -22.489  0.00  0.00     0.128 A 
ATOM      5  C   UNL d   1      32.834  19.036 -22.261  0.00  0.00     0.044 A 
ATOM      6  C   UNL d   1      32.918  18.434 -22.819  0.00  0.00     0.141 A 
ATOM      7  F   UNL d   1      32.843  17.643 -22.588  0.00  0.00    -0.204 F 
ATOM      8  C   UNL d   1      33.074  18.626 -23.604  0.00  0.00     0.032 A 
ATOM      9  C   UNL d   1      33.149  19.417 -23.835  0.00  0.00     0.027 A 
ATOM     10  C   UNL d   1      33.065  20.014 -23.277  0.00  0.00     0.106 A 
BRANCH  10  11
ATOM     11  O   UNL d   1      33.138  20.810 -23.501  0.00  0.00    -0.327 OA
ATOM     12  C   UNL d   1      33.241  21.004 -24.300  0.00  0.00     0.181 C 
ENDBRANCH  10  11
ENDBRANCH   1   4
BRANCH   1  13
ATOM     13  N   UNL d   1      32.742  21.029 -21.375  0.00  0.00    -0.229 N 
ATOM     14  C   UNL d   1      32.157  21.613 -21.467  0.00  0.00     0.092 A 
ATOM     15  C   UNL d   1      32.073  22.218 -20.907  0.00  0.00     0.025 A 
ATOM     16  C   UNL d   1      32.575  22.239 -20.254  0.00  0.00     0.062 A 
ATOM     17  C   UNL d   1      33.157  21.667 -20.151  0.00  0.00     0.025 A 
ATOM     18  C   UNL d   1      33.241  21.062 -20.711  0.00  0.00     0.092 A 
BRANCH  16  19
ATOM     19  C   UNL d   1      32.491  22.844 -19.694  0.00  0.00     0.297 C 
ATOM     20  O   UNL d   1      32.112  23.550 -19.901  0.00  0.00    -0.264 OA
ATOM     21  N   UNL d   1      32.785  22.749 -18.923  0.00  0.00    -0.102 N 
ENDBRANCH  16  19
ENDBRANCH   1  13
TORSDOF 4
ENDMDL
MODEL 6
REMARK VINA RESULT:      -0.6      2.291      3.263
REMARK  4 active torsions:
REMARK  status: ('A' for Active; 'I' for Inactive)
REMARK    1  A    between atoms: C_2  and  S_1 
REMARK    2  A    between atoms: N_3  and  S_1 
REMARK    3  A    between atoms: C_5  and  C_11 
REMARK    4  A    between atoms: O_20  and  C_8 
ROOT
ATOM      1  S   UNL d   1      32.730  19.270 -22.866  0.00  0.00     0.273 S 
ATOM      2  O   UNL d   1      32.222  19.679 -23.377  0.00  0.00    -0.200 OA
ATOM      3  O   UNL d   1      33.240  18.865 -22.352  0.00  0.00    -0.200 OA
ENDROOT
BRANCH   1   4
ATOM      4  C   UNL d   1      32.856  19.968 -22.453  0.00  0.00     0.128 A 
ATOM      5  C   UNL d   1      32.832  19.972 -21.630  0.00  0.00     0.044 A 
ATOM      6  C   UNL d   1      32.958  20.674 -21.215  0.00  0.00     0.141 A 
ATOM      7  F   UNL d   1      32.935  20.676 -20.388  0.00  0.00    -0.204 F 
ATOM      8  C   UNL d   1      33.107  21.370 -21.629  0.00  0.00     0.032 A 
ATOM      9  C   UNL d   1      33.131  21.367 -22.456  0.00  0.00     0.027 A 
ATOM     10  C   UNL d   1      33.005  20.667 -22.865  0.00  0.00     0.106 A 
BRANCH  10  11
ATOM     11  O   UNL d   1      33.027  20.657 -23.695  0.00  0.00    -0.327 OA
ATOM     12  C   UNL d   1      33.239  21.343 -24.109  0.00  0.00     0.181 C 
ENDBRANCH  10  11
ENDBRANCH   1   4
BRANCH   1  13
ATOM     13  N   UNL d   1      32.604  18.565 -23.282  0.00  0.00    -0.229 N 
ATOM     14  C   UNL d   1      31.862  18.190 -23.264  0.00  0.00     0.092 A 
ATOM     15  C   UNL d   1      31.736  17.485 -23.681  0.00  0.00     0.025 A 
ATOM     16  C   UNL d   1      32.351  17.155 -24.116  0.00  0.00     0.062 A 
ATOM     17  C   UNL d   1      33.091  17.515 -24.143  0.00  0.00     0.025 A 
ATOM     18  C   UNL d   1      33.217  18.220 -23.726  0.00  0.00     0.092 A 
BRANCH  16  19
ATOM     19  C   UNL d   1      32.225  16.450 -24.533  0.00  0.00     0.297 C 
ATOM     20  O   UNL d   1      31.481  16.287 -24.856  0.00  0.00    -0.264 OA
ATOM     21  N   UNL d   1      32.841  15.901 -24.631  0.00  0.00    -0.102 N 
ENDBRANCH  16  19
ENDBRANCH   1  13
TORSDOF 4
ENDMDL
MODEL 7
REMARK VINA RESULT:      -0.5      5.685      7.048
REMARK  4 active torsions:
REMARK  status: ('A' for Active; 'I' for Inactive)
REMARK    1  A    between atoms: C_2  and  S_1 
REMARK    2  A    between atoms: N_3  and  S_1 
REMARK    3  A    between atoms: C_5  and  C_11 
REMARK    4  A    between atoms: O_20  and  C_8 
ROOT
ATOM      1  S   UNL d   1      29.772  16.377 -23.887  0.00  0.00     0.273 S 
ATOM      2  O   UNL d   1      30.030  15.633 -24.148  0.00  0.00    -0.200 OA
ATOM      3  O   UNL d   1      29.509  17.118 -23.625  0.00  0.00    -0.200 OA
ENDROOT
BRANCH   1   4
ATOM      4  C   UNL d   1      29.016  16.069 -23.801  0.00  0.00     0.128 A 
ATOM      5  C   UNL d   1      28.506  16.036 -24.447  0.00  0.00     0.044 A 
ATOM      6  C   UNL d   1      27.746  15.727 -24.361  0.00  0.00     0.141 A 
ATOM      7  F   UNL d   1      27.236  15.695 -25.011  0.00  0.00    -0.204 F 
ATOM      8  C   UNL d   1      27.501  15.453 -23.624  0.00  0.00     0.032 A 
ATOM      9  C   UNL d   1      28.011  15.485 -22.974  0.00  0.00     0.027 A 
ATOM     10  C   UNL d   1      28.767  15.793 -23.064  0.00  0.00     0.106 A 
BRANCH  10  11
ATOM     11  O   UNL d   1      29.285  15.829 -22.416  0.00  0.00    -0.327 OA
ATOM     12  C   UNL d   1      29.049  15.519 -21.684  0.00  0.00     0.181 C 
ENDBRANCH  10  11
ENDBRANCH   1   4
BRANCH   1  13
ATOM     13  N   UNL d   1      30.535  16.686 -23.973  0.00  0.00    -0.229 N 
ATOM     14  C   UNL d   1      31.202  16.229 -23.781  0.00  0.00     0.092 A 
ATOM     15  C   UNL d   1      31.966  16.539 -23.868  0.00  0.00     0.025 A 
ATOM     16  C   UNL d   1      32.063  17.307 -24.147  0.00  0.00     0.062 A 
ATOM     17  C   UNL d   1      31.411  17.771 -24.341  0.00  0.00     0.025 A 
ATOM     18  C   UNL d   1      30.647  17.461 -24.254  0.00  0.00     0.092 A 
BRANCH  16  19
ATOM     19  C   UNL d   1      32.826  17.617 -24.234  0.00  0.00     0.297 C 
ATOM     20  O   UNL d   1      33.240  17.890 -23.572  0.00  0.00    -0.264 OA
ATOM     21  N   UNL d   1      33.183  17.658 -24.984  0.00  0.00    -0.102 N 
ENDBRANCH  16  19
ENDBRANCH   1  13
TORSDOF 4
ENDMDL
