MODEL 1
REMARK VINA RESULT:      98.7      0.000      0.000
REMARK  3 active torsions:
REMARK  status: ('A' for Active; 'I' for Inactive)
REMARK    1  A    between atoms: C_2  and  C_1 
REMARK    2  A    between atoms: C_13  and  C_8 
REMARK    3  A    between atoms: O_23  and  C_20 
ROOT
ATOM      1  C   UNL d   1     -54.831-100.762 -42.020  0.00  0.00     0.106 A 
ATOM      2  C   UNL d   1     -54.761 -99.967 -41.728  0.00  0.00     0.304 A 
ATOM      3  C   UNL d   1     -54.860-100.898 -42.832  0.00  0.00     0.011 A 
ATOM      4  C   UNL d   1     -54.821-100.276 -43.346  0.00  0.00     0.023 A 
ATOM      5  O   UNL d   1     -54.722 -99.335 -42.258  0.00  0.00    -0.273 OA
ATOM      6  C   UNL d   1     -54.751 -99.481 -43.054  0.00  0.00     0.103 A 
ATOM      7  C   UNL d   1     -54.850-100.412 -44.157  0.00  0.00     0.002 A 
ATOM      8  O   UNL d   1     -54.732 -99.835 -40.895  0.00  0.00    -0.259 OA
ATOM      9  C   UNL d   1     -54.712 -98.849 -43.584  0.00  0.00     0.025 A 
ATOM     10  C   UNL d   1     -54.812 -99.782 -44.692  0.00  0.00     0.000 A 
ATOM     11  C   UNL d   1     -54.742 -98.987 -44.400  0.00  0.00     0.002 A 
ATOM     12  C   UNL d   1     -54.919-101.194 -44.420  0.00  0.00     0.000 A 
ATOM     13  C   UNL d   1     -54.841 -99.926 -45.483  0.00  0.00     0.000 A 
ATOM     14  C   UNL d   1     -54.948-101.331 -45.237  0.00  0.00     0.000 A 
ATOM     15  C   UNL d   1     -54.909-100.700 -45.768  0.00  0.00     0.000 A 
ENDROOT
BRANCH   1  16
ATOM     16  C   UNL d   1     -54.870-101.391 -41.485  0.00  0.00     0.210 A 
ATOM     17  O   UNL d   1     -55.104-101.265 -40.711  0.00  0.00    -0.268 OA
ATOM     18  C   UNL d   1     -55.089-101.981 -40.316  0.00  0.00     0.204 A 
ATOM     19  N   UNL d   1     -54.846-102.535 -40.854  0.00  0.00    -0.121 NA
ATOM     20  N   UNL d   1     -54.711-102.175 -41.571  0.00  0.00    -0.121 NA
BRANCH  18  21
ATOM     21  C   UNL d   1     -55.263-102.210 -39.537  0.00  0.00     0.043 A 
ATOM     22  C   UNL d   1     -55.991-102.546 -39.362  0.00  0.00     0.006 A 
ATOM     23  C   UNL d   1     -56.178-102.774 -38.614  0.00  0.00     0.024 A 
ATOM     24  C   UNL d   1     -55.604-102.659 -38.003  0.00  0.00     0.094 A 
ATOM     25  C   UNL d   1     -54.876-102.322 -38.180  0.00  0.00     0.024 A 
ATOM     26  C   UNL d   1     -54.711-102.098 -38.953  0.00  0.00     0.006 A 
BRANCH  24  27
ATOM     27  O   UNL d   1     -55.756-102.879 -37.222  0.00  0.00    -0.328 OA
ATOM     28  C   UNL d   1     -55.262-102.638 -36.619  0.00  0.00     0.181 C 
ENDBRANCH  24  27
ENDBRANCH  18  21
ENDBRANCH   1  16
TORSDOF 3
ENDMDL
