MODEL 1
REMARK VINA RESULT:      -3.8      0.000      0.000
REMARK  4 active torsions:
REMARK  status: ('A' for Active; 'I' for Inactive)
REMARK    1  A    between atoms: C_10  and  C_2 
REMARK    2  A    between atoms: C_9  and  C_4 
REMARK    3  A    between atoms: C_8  and  N_6 
REMARK    4  A    between atoms: N_7  and  C_9 
ROOT
ATOM      1  N   UNL d   1      32.974  20.449 -22.146  0.00  0.00    -0.301 N 
ATOM      2  N   UNL d   1      33.150  19.057 -23.009  0.00  0.00    -0.297 N 
ATOM      3  C   UNL d   1      32.944  19.718 -21.765  0.00  0.00     0.100 A 
ATOM      4  C   UNL d   1      33.092  20.484 -22.958  0.00  0.00     0.100 A 
ATOM      5  C   UNL d   1      33.032  19.022 -22.197  0.00  0.00     0.100 A 
ATOM      6  C   UNL d   1      33.181  19.787 -23.394  0.00  0.00     0.100 A 
ENDROOT
BRANCH   2   7
ATOM      7  C   UNL d   1      33.239  18.364 -23.445  0.00  0.00     0.127 C 
BRANCH   7   8
ATOM      8  C   UNL d   1      32.586  18.038 -23.824  0.00  0.00     0.222 A 
ATOM      9  N   UNL d   1      32.329  18.196 -24.597  0.00  0.00    -0.119 NA
ATOM     10  N   UNL d   1      31.654  17.746 -24.741  0.00  0.00    -0.121 NA
ATOM     11  C   UNL d   1      31.490  17.307 -24.058  0.00  0.00     0.204 A 
ATOM     12  O   UNL d   1      32.065  17.486 -23.491  0.00  0.00    -0.267 OA
BRANCH  11  13
ATOM     13  C   UNL d   1      30.859  16.781 -23.965  0.00  0.00     0.043 A 
ATOM     14  C   UNL d   1      30.978  16.055 -23.597  0.00  0.00     0.004 A 
ATOM     15  C   UNL d   1      30.348  15.531 -23.504  0.00  0.00     0.000 A 
ATOM     16  C   UNL d   1      29.600  15.734 -23.780  0.00  0.00     0.000 A 
ATOM     17  C   UNL d   1      29.483  16.472 -24.153  0.00  0.00     0.000 A 
ATOM     18  C   UNL d   1      30.118  16.988 -24.241  0.00  0.00     0.004 A 
ENDBRANCH  11  13
ENDBRANCH   7   8
ENDBRANCH   2   7
BRANCH   1  19
ATOM     19  C   UNL d   1      32.886  21.145 -21.715  0.00  0.00     0.064 A 
ATOM     20  C   UNL d   1      33.241  21.842 -21.979  0.00  0.00     0.020 A 
ATOM     21  C   UNL d   1      33.151  22.539 -21.544  0.00  0.00     0.031 A 
ATOM     22  C   UNL d   1      32.706  22.542 -20.845  0.00  0.00     0.140 A 
ATOM     23  C   UNL d   1      32.355  21.839 -20.591  0.00  0.00     0.031 A 
ATOM     24  F   UNL d   1      32.592  23.213 -20.383  0.00  0.00    -0.204 F 
ATOM     25  C   UNL d   1      32.444  21.143 -21.023  0.00  0.00     0.020 A 
ENDBRANCH   1  19
TORSDOF 4
ENDMDL
MODEL 2
REMARK VINA RESULT:      -3.4      2.209      5.441
REMARK  4 active torsions:
REMARK  status: ('A' for Active; 'I' for Inactive)
REMARK    1  A    between atoms: C_10  and  C_2 
REMARK    2  A    between atoms: C_9  and  C_4 
REMARK    3  A    between atoms: C_8  and  N_6 
REMARK    4  A    between atoms: N_7  and  C_9 
ROOT
ATOM      1  N   UNL d   1      30.423  16.654 -24.095  0.00  0.00    -0.301 N 
ATOM      2  N   UNL d   1      31.951  17.246 -24.253  0.00  0.00    -0.297 N 
ATOM      3  C   UNL d   1      30.606  17.167 -24.714  0.00  0.00     0.100 A 
ATOM      4  C   UNL d   1      31.002  16.437 -23.555  0.00  0.00     0.100 A 
ATOM      5  C   UNL d   1      31.371  17.463 -24.793  0.00  0.00     0.100 A 
ATOM      6  C   UNL d   1      31.770  16.733 -23.632  0.00  0.00     0.100 A 
ENDROOT
BRANCH   2   7
ATOM      7  C   UNL d   1      32.717  17.540 -24.328  0.00  0.00     0.127 C 
BRANCH   7   8
ATOM      8  C   UNL d   1      32.888  18.297 -24.057  0.00  0.00     0.222 A 
ATOM      9  N   UNL d   1      33.106  18.952 -24.517  0.00  0.00    -0.119 NA
ATOM     10  N   UNL d   1      33.223  19.594 -24.012  0.00  0.00    -0.121 NA
ATOM     11  C   UNL d   1      33.078  19.338 -23.238  0.00  0.00     0.204 A 
ATOM     12  O   UNL d   1      32.871  18.538 -23.264  0.00  0.00    -0.267 OA
BRANCH  11  13
ATOM     13  C   UNL d   1      33.133  19.807 -22.559  0.00  0.00     0.043 A 
ATOM     14  C   UNL d   1      33.179  20.625 -22.627  0.00  0.00     0.004 A 
ATOM     15  C   UNL d   1      33.234  21.093 -21.949  0.00  0.00     0.000 A 
ATOM     16  C   UNL d   1      33.241  20.741 -21.205  0.00  0.00     0.000 A 
ATOM     17  C   UNL d   1      33.193  19.909 -21.142  0.00  0.00     0.000 A 
ATOM     18  C   UNL d   1      33.139  19.452 -21.823  0.00  0.00     0.004 A 
ENDBRANCH  11  13
ENDBRANCH   7   8
ENDBRANCH   2   7
BRANCH   1  19
ATOM     19  C   UNL d   1      29.658  16.358 -24.015  0.00  0.00     0.064 A 
ATOM     20  C   UNL d   1      29.398  15.748 -24.508  0.00  0.00     0.020 A 
ATOM     21  C   UNL d   1      28.631  15.453 -24.426  0.00  0.00     0.031 A 
ATOM     22  C   UNL d   1      28.121  15.765 -23.853  0.00  0.00     0.140 A 
ATOM     23  C   UNL d   1      28.392  16.375 -23.366  0.00  0.00     0.031 A 
ATOM     24  F   UNL d   1      27.350  15.500 -23.738  0.00  0.00    -0.204 F 
ATOM     25  C   UNL d   1      29.156  16.671 -23.445  0.00  0.00     0.020 A 
ENDBRANCH   1  19
TORSDOF 4
ENDMDL
