MODEL 1
REMARK VINA RESULT:      18.1      0.000      0.000
REMARK  6 active torsions:
REMARK  status: ('A' for Active; 'I' for Inactive)
REMARK    1  A    between atoms: C_2  and  N_10 
REMARK    2  A    between atoms: N_8  and  C_2 
REMARK    3  A    between atoms: C_4  and  N_8 
REMARK    4  A    between atoms: N_10  and  C_16 
REMARK    5  A    between atoms: C_22  and  C_13 
REMARK    6  A    between atoms: C_16  and  C_15 
ROOT
ATOM      1  C   UNL d   1      45.937 -15.429  44.412  0.00  0.00     0.221 C 
ATOM      2  S   UNL d   1      46.527 -15.077  43.956  0.00  0.00    -0.037 SA
ENDROOT
BRANCH   1   3
ATOM      3  N   UNL d   1      45.822 -16.247  44.376  0.00  0.00    -0.216 NA
BRANCH   3   4
ATOM      4  C   UNL d   1      46.462 -16.765  44.480  0.00  0.00     0.101 C 
BRANCH   4   5
ATOM      5  C   UNL d   1      46.385 -17.561  44.268  0.00  0.00     0.019 A 
ATOM      6  C   UNL d   1      46.207 -18.131  44.839  0.00  0.00     0.003 A 
ATOM      7  C   UNL d   1      46.131 -18.924  44.620  0.00  0.00     0.019 A 
ATOM      8  C   UNL d   1      46.232 -19.143  43.836  0.00  0.00     0.081 A 
ATOM      9  C   UNL d   1      46.410 -18.573  43.265  0.00  0.00     0.019 A 
ATOM     10  N   UNL d   1      46.192 -19.877  43.457  0.00  0.00    -0.246 NA
ATOM     11  C   UNL d   1      46.486 -17.785  43.480  0.00  0.00     0.003 A 
ATOM     12  C   UNL d   1      46.478 -18.959  42.538  0.00  0.00     0.021 A 
ATOM     13  C   UNL d   1      46.345 -19.751  42.654  0.00  0.00     0.082 A 
ATOM     14  C   UNL d   1      46.363 -20.329  42.063  0.00  0.00     0.021 C 
ENDBRANCH   4   5
ENDBRANCH   3   4
ENDBRANCH   1   3
BRANCH   1  15
ATOM     15  N   UNL d   1      45.462 -14.966  44.901  0.00  0.00    -0.217 NA
BRANCH  15  16
ATOM     16  C   UNL d   1      45.273 -14.197  44.680  0.00  0.00     0.084 A 
ATOM     17  C   UNL d   1      45.856 -13.614  44.669  0.00  0.00     0.018 A 
ATOM     18  C   UNL d   1      45.667 -12.844  44.448  0.00  0.00     0.002 A 
ATOM     19  C   UNL d   1      46.636 -13.801  44.881  0.00  0.00     0.002 C 
ATOM     20  C   UNL d   1      44.887 -12.651  44.235  0.00  0.00     0.000 A 
ATOM     21  C   UNL d   1      44.303 -13.234  44.246  0.00  0.00     0.002 A 
ATOM     22  C   UNL d   1      44.499 -14.009  44.470  0.00  0.00     0.018 A 
BRANCH  22  23
ATOM     23  C   UNL d   1      43.915 -14.592  44.480  0.00  0.00     0.002 C 
ATOM     24  C   UNL d   1      43.253 -14.505  44.951  0.00  0.00     0.000 C 
ENDBRANCH  22  23
ENDBRANCH  15  16
ENDBRANCH   1  15
TORSDOF 6
ENDMDL
