MODEL 1
REMARK VINA RESULT:      21.9      0.000      0.000
REMARK  5 active torsions:
REMARK  status: ('A' for Active; 'I' for Inactive)
REMARK    1  A    between atoms: C_3  and  C_1 
REMARK    2  A    between atoms: C_4  and  C_3 
REMARK    3  A    between atoms: C_7  and  C_4 
REMARK    4  A    between atoms: C_10  and  C_7 
REMARK    5  A    between atoms: O_19  and  C_9 
ROOT
ATOM      1  C   UNL d   1     -56.946 -98.780 -44.770  0.00  0.00     0.199 C 
ATOM      2  O   UNL d   1     -56.956 -98.807 -45.595  0.00  0.00    -0.286 OA
ENDROOT
BRANCH   1   3
ATOM      3  C   UNL d   1     -57.653 -98.774 -44.350  0.00  0.00     0.078 A 
ATOM      4  C   UNL d   1     -58.373 -98.771 -44.752  0.00  0.00     0.201 A 
ATOM      5  C   UNL d   1     -59.084 -98.764 -44.327  0.00  0.00     0.066 A 
ATOM      6  O   UNL d   1     -58.390 -98.774 -45.577  0.00  0.00    -0.286 OA
ATOM      7  C   UNL d   1     -59.071 -98.761 -43.503  0.00  0.00     0.097 A 
ATOM      8  C   UNL d   1     -58.350 -98.764 -43.101  0.00  0.00     0.025 A 
ATOM      9  C   UNL d   1     -57.643 -98.770 -43.523  0.00  0.00     0.008 A 
BRANCH   7  10
ATOM     10  O   UNL d   1     -59.782 -98.755 -43.076  0.00  0.00    -0.328 OA
ATOM     11  C   UNL d   1     -59.779 -98.906 -42.266  0.00  0.00     0.181 C 
ENDBRANCH   7  10
ENDBRANCH   1   3
BRANCH   1  12
ATOM     12  C   UNL d   1     -56.228 -98.758 -44.368  0.00  0.00     0.042 C 
BRANCH  12  13
ATOM     13  C   UNL d   1     -55.555 -99.117 -44.694  0.00  0.00     0.003 C 
BRANCH  13  14
ATOM     14  C   UNL d   1     -55.372 -99.898 -44.510  0.00  0.00     0.000 A 
ATOM     15  C   UNL d   1     -54.934-100.064 -43.832  0.00  0.00     0.001 A 
ATOM     16  C   UNL d   1     -54.751-100.845 -43.647  0.00  0.00     0.011 A 
ATOM     17  C   UNL d   1     -55.020-101.460 -44.164  0.00  0.00     0.058 A 
ATOM     18  C   UNL d   1     -55.445-101.291 -44.821  0.00  0.00     0.011 A 
ATOM     19 CL   UNL d   1     -54.844-102.239 -43.990  0.00  0.00    -0.082 Cl
ATOM     20  C   UNL d   1     -55.628-100.510 -45.004  0.00  0.00     0.001 A 
ENDBRANCH  13  14
ENDBRANCH  12  13
ENDBRANCH   1  12
TORSDOF 5
ENDMDL
