MODEL 1
REMARK VINA RESULT:      -1.7      0.000      0.000
REMARK  7 active torsions:
REMARK  status: ('A' for Active; 'I' for Inactive)
REMARK    1  A    between atoms: C_12  and  N_1 
REMARK    2  A    between atoms: C_2  and  N_6 
REMARK    3  A    between atoms: C_9  and  C_5 
REMARK       I    between atoms: N_6  and  C_9 
REMARK    4  A    between atoms: S_15  and  C_7 
REMARK    5  A    between atoms: C_14  and  C_20 
REMARK       I    between atoms: N_21  and  C_14 
REMARK    6  A    between atoms: C_20  and  S_15 
REMARK    7  A    between atoms: O_22  and  C_18 
ROOT
ATOM      1  N   UNL d   1      30.586  16.614 -24.151  0.00  0.00    -0.271 N 
ATOM      2  C   UNL d   1      31.125  16.196 -23.792  0.00  0.00     0.265 A 
ATOM      3  C   UNL d   1      31.600  17.336 -24.002  0.00  0.00     0.080 A 
ATOM      4  C   UNL d   1      30.880  17.321 -24.282  0.00  0.00     0.088 A 
ATOM      5  C   UNL d   1      31.759  16.639 -23.697  0.00  0.00     0.067 A 
ATOM      6  O   UNL d   1      31.050  15.453 -23.563  0.00  0.00    -0.267 OA
ENDROOT
BRANCH   3   7
ATOM      7  C   UNL d   1      32.088  17.937 -24.019  0.00  0.00     0.283 C 
ATOM      8  N   UNL d   1      31.856  18.632 -23.758  0.00  0.00    -0.181 NA
ATOM      9  O   UNL d   1      32.809  17.847 -24.296  0.00  0.00    -0.265 OA
BRANCH   8  10
ATOM     10  C   UNL d   1      32.341  19.236 -23.773  0.00  0.00     0.219 A 
ATOM     11  S   UNL d   1      32.388  19.799 -23.239  0.00  0.00    -0.019 SA
ATOM     12  C   UNL d   1      32.936  20.291 -23.459  0.00  0.00     0.165 A 
ATOM     13  N   UNL d   1      33.241  20.046 -24.131  0.00  0.00    -0.133 NA
ATOM     14  N   UNL d   1      32.865  19.382 -24.328  0.00  0.00    -0.120 NA
BRANCH  12  15
ATOM     15  S   UNL d   1      33.227  21.629 -22.433  0.00  0.00    -0.054 SA
BRANCH  15  16
ATOM     16  C   UNL d   1      32.811  21.702 -21.714  0.00  0.00     0.100 C 
BRANCH  16  17
ATOM     17  C   UNL d   1      32.788  22.439 -21.320  0.00  0.00     0.286 C 
ATOM     18  O   UNL d   1      33.229  23.090 -21.615  0.00  0.00    -0.265 OA
ATOM     19  N   UNL d   1      32.322  22.525 -20.629  0.00  0.00    -0.204 NA
ATOM     20  C   UNL d   1      32.306  23.265 -20.243  0.00  0.00     0.123 C 
ENDBRANCH  16  17
ENDBRANCH  15  16
ENDBRANCH  12  15
ENDBRANCH   8  10
ENDBRANCH   3   7
BRANCH   1  21
ATOM     21  C   UNL d   1      29.818  16.356 -24.365  0.00  0.00     0.089 A 
ATOM     22  C   UNL d   1      29.143  16.746 -24.060  0.00  0.00     0.110 A 
ATOM     23  C   UNL d   1      28.388  16.496 -24.268  0.00  0.00     0.026 A 
ATOM     24  C   UNL d   1      28.298  15.844 -24.788  0.00  0.00     0.002 A 
ATOM     25  C   UNL d   1      28.956  15.453 -25.094  0.00  0.00     0.002 A 
ATOM     26  C   UNL d   1      29.730  15.707 -24.884  0.00  0.00     0.020 A 
BRANCH  22  27
ATOM     27  O   UNL d   1      29.242  17.392 -23.544  0.00  0.00    -0.327 OA
ATOM     28  C   UNL d   1      28.573  17.817 -23.285  0.00  0.00     0.181 C 
ENDBRANCH  22  27
ENDBRANCH   1  21
TORSDOF 7
ENDMDL
MODEL 2
REMARK VINA RESULT:      -1.0      1.696      5.905
REMARK  7 active torsions:
REMARK  status: ('A' for Active; 'I' for Inactive)
REMARK    1  A    between atoms: C_12  and  N_1 
REMARK    2  A    between atoms: C_2  and  N_6 
REMARK    3  A    between atoms: C_9  and  C_5 
REMARK       I    between atoms: N_6  and  C_9 
REMARK    4  A    between atoms: S_15  and  C_7 
REMARK    5  A    between atoms: C_14  and  C_20 
REMARK       I    between atoms: N_21  and  C_14 
REMARK    6  A    between atoms: C_20  and  S_15 
REMARK    7  A    between atoms: O_22  and  C_18 
ROOT
ATOM      1  N   UNL d   1      32.964  20.728 -22.378  0.00  0.00    -0.271 N 
ATOM      2  C   UNL d   1      33.094  20.888 -23.121  0.00  0.00     0.265 A 
ATOM      3  C   UNL d   1      32.900  19.654 -23.021  0.00  0.00     0.080 A 
ATOM      4  C   UNL d   1      32.844  19.964 -22.316  0.00  0.00     0.088 A 
ATOM      5  C   UNL d   1      33.056  20.223 -23.527  0.00  0.00     0.067 A 
ATOM      6  O   UNL d   1      33.241  21.595 -23.419  0.00  0.00    -0.267 OA
ENDROOT
BRANCH   3   7
ATOM      7  C   UNL d   1      32.817  18.906 -23.203  0.00  0.00     0.283 C 
ATOM      8  N   UNL d   1      32.772  18.692 -23.949  0.00  0.00    -0.181 NA
ATOM      9  O   UNL d   1      32.778  18.369 -22.642  0.00  0.00    -0.265 OA
BRANCH   8  10
ATOM     10  C   UNL d   1      32.689  17.945 -24.137  0.00  0.00     0.219 A 
ATOM     11  S   UNL d   1      32.059  17.507 -24.010  0.00  0.00    -0.019 SA
ATOM     12  C   UNL d   1      32.201  16.801 -24.277  0.00  0.00     0.165 A 
ATOM     13  N   UNL d   1      32.919  16.783 -24.575  0.00  0.00    -0.133 NA
ATOM     14  N   UNL d   1      33.225  17.504 -24.486  0.00  0.00    -0.120 NA
BRANCH  12  15
ATOM     15  S   UNL d   1      30.949  15.648 -24.109  0.00  0.00    -0.054 SA
BRANCH  15  16
ATOM     16  C   UNL d   1      30.369  15.744 -23.518  0.00  0.00     0.100 C 
BRANCH  16  17
ATOM     17  C   UNL d   1      29.572  15.873 -23.734  0.00  0.00     0.286 C 
ATOM     18  O   UNL d   1      29.378  16.094 -24.520  0.00  0.00    -0.265 OA
ATOM     19  N   UNL d   1      28.966  15.781 -23.161  0.00  0.00    -0.204 NA
ATOM     20  C   UNL d   1      28.174  15.913 -23.387  0.00  0.00     0.123 C 
ENDBRANCH  16  17
ENDBRANCH  15  16
ENDBRANCH  12  15
ENDBRANCH   8  10
ENDBRANCH   3   7
BRANCH   1  21
ATOM     21  C   UNL d   1      32.954  21.279 -21.747  0.00  0.00     0.089 A 
ATOM     22  C   UNL d   1      33.090  21.022 -20.962  0.00  0.00     0.110 A 
ATOM     23  C   UNL d   1      33.081  21.560 -20.340  0.00  0.00     0.026 A 
ATOM     24  C   UNL d   1      32.934  22.370 -20.497  0.00  0.00     0.002 A 
ATOM     25  C   UNL d   1      32.799  22.634 -21.267  0.00  0.00     0.002 A 
ATOM     26  C   UNL d   1      32.808  22.086 -21.906  0.00  0.00     0.020 A 
BRANCH  22  27
ATOM     27  O   UNL d   1      33.235  20.216 -20.815  0.00  0.00    -0.327 OA
ATOM     28  C   UNL d   1      33.238  19.935 -20.030  0.00  0.00     0.181 C 
ENDBRANCH  22  27
ENDBRANCH   1  21
TORSDOF 7
ENDMDL
MODEL 3
REMARK VINA RESULT:       0.7      1.479      6.542
REMARK  7 active torsions:
REMARK  status: ('A' for Active; 'I' for Inactive)
REMARK    1  A    between atoms: C_12  and  N_1 
REMARK    2  A    between atoms: C_2  and  N_6 
REMARK    3  A    between atoms: C_9  and  C_5 
REMARK       I    between atoms: N_6  and  C_9 
REMARK    4  A    between atoms: S_15  and  C_7 
REMARK    5  A    between atoms: C_14  and  C_20 
REMARK       I    between atoms: N_21  and  C_14 
REMARK    6  A    between atoms: C_20  and  S_15 
REMARK    7  A    between atoms: O_22  and  C_18 
ROOT
ATOM      1  N   UNL d   1      32.705  22.022 -20.777  0.00  0.00    -0.271 N 
ATOM      2  C   UNL d   1      32.333  22.289 -21.397  0.00  0.00     0.265 A 
ATOM      3  C   UNL d   1      32.734  21.131 -21.658  0.00  0.00     0.080 A 
ATOM      4  C   UNL d   1      32.954  21.305 -20.938  0.00  0.00     0.088 A 
ATOM      5  C   UNL d   1      32.347  21.740 -21.949  0.00  0.00     0.067 A 
ATOM      6  O   UNL d   1      31.998  22.992 -21.463  0.00  0.00    -0.267 OA
ENDROOT
BRANCH   3   7
ATOM      7  C   UNL d   1      32.870  20.468 -22.034  0.00  0.00     0.283 C 
ATOM      8  N   UNL d   1      32.635  20.386 -22.771  0.00  0.00    -0.181 NA
ATOM      9  O   UNL d   1      33.241  19.886 -21.677  0.00  0.00    -0.265 OA
BRANCH   8  10
ATOM     10  C   UNL d   1      32.769  19.724 -23.151  0.00  0.00     0.219 A 
ATOM     11  S   UNL d   1      32.494  19.022 -22.962  0.00  0.00    -0.019 SA
ATOM     12  C   UNL d   1      32.755  18.517 -23.478  0.00  0.00     0.165 A 
ATOM     13  N   UNL d   1      33.196  18.890 -23.998  0.00  0.00    -0.133 NA
ATOM     14  N   UNL d   1      33.205  19.651 -23.791  0.00  0.00    -0.120 NA
BRANCH  12  15
ATOM     15  S   UNL d   1      32.277  16.887 -23.269  0.00  0.00    -0.054 SA
BRANCH  15  16
ATOM     16  C   UNL d   1      31.472  16.697 -23.170  0.00  0.00     0.100 C 
BRANCH  16  17
ATOM     17  C   UNL d   1      31.069  16.270 -23.765  0.00  0.00     0.286 C 
ATOM     18  O   UNL d   1      31.479  15.702 -24.228  0.00  0.00    -0.265 OA
ATOM     19  N   UNL d   1      30.253  16.411 -23.897  0.00  0.00    -0.204 NA
ATOM     20  C   UNL d   1      29.860  15.979 -24.494  0.00  0.00     0.123 C 
ENDBRANCH  16  17
ENDBRANCH  15  16
ENDBRANCH  12  15
ENDBRANCH   8  10
ENDBRANCH   3   7
BRANCH   1  21
ATOM     21  C   UNL d   1      32.823  22.431 -20.055  0.00  0.00     0.089 A 
ATOM     22  C   UNL d   1      32.998  22.006 -19.355  0.00  0.00     0.110 A 
ATOM     23  C   UNL d   1      33.114  22.404 -18.644  0.00  0.00     0.026 A 
ATOM     24  C   UNL d   1      33.057  23.240 -18.625  0.00  0.00     0.002 A 
ATOM     25  C   UNL d   1      32.885  23.668 -19.309  0.00  0.00     0.002 A 
ATOM     26  C   UNL d   1      32.766  23.264 -20.038  0.00  0.00     0.020 A 
BRANCH  22  27
ATOM     27  O   UNL d   1      33.053  21.176 -19.383  0.00  0.00    -0.327 OA
ATOM     28  C   UNL d   1      33.241  20.753 -18.690  0.00  0.00     0.181 C 
ENDBRANCH  22  27
ENDBRANCH   1  21
TORSDOF 7
ENDMDL
