MODEL 1
REMARK VINA RESULT:      62.0      0.000      0.000
REMARK  3 active torsions:
REMARK  status: ('A' for Active; 'I' for Inactive)
REMARK    1  A    between atoms: N_4  and  C_1 
REMARK    2  A    between atoms: C_15  and  C_5 
REMARK    3  A    between atoms: C_9  and  N_8 
ROOT
ATOM      1  C   UNL d   1     -54.738-101.453 -41.301  0.00  0.00     0.169 A 
ATOM      2  N   UNL d   1     -54.743-102.094 -41.819  0.00  0.00    -0.130 NA
ATOM      3  N   UNL d   1     -54.739-101.938 -42.638  0.00  0.00    -0.147 NA
ATOM      4  C   UNL d   1     -54.731-101.174 -42.920  0.00  0.00     0.103 A 
ATOM      5  C   UNL d   1     -54.730-100.693 -41.583  0.00  0.00     0.038 A 
ATOM      6  C   UNL d   1     -54.727-100.552 -42.399  0.00  0.00     0.022 A 
ATOM      7  C   UNL d   1     -54.725-100.039 -41.047  0.00  0.00     0.003 A 
ATOM      8  C   UNL d   1     -54.718 -99.743 -42.673  0.00  0.00     0.002 A 
ATOM      9  C   UNL d   1     -54.717 -99.238 -41.332  0.00  0.00     0.000 A 
ATOM     10  C   UNL d   1     -54.713 -99.113 -42.151  0.00  0.00     0.000 A 
ENDROOT
BRANCH   1  11
ATOM     11  N   UNL d   1     -54.742-101.591 -40.499  0.00  0.00    -0.285 N 
ATOM     12  C   UNL d   1     -54.712-102.358 -40.193  0.00  0.00     0.101 A 
ATOM     13  C   UNL d   1     -54.716-102.498 -39.381  0.00  0.00     0.101 A 
ATOM     14  N   UNL d   1     -54.749-101.874 -38.855  0.00  0.00    -0.286 N 
ATOM     15  C   UNL d   1     -54.778-101.114 -39.143  0.00  0.00     0.101 A 
ATOM     16  C   UNL d   1     -54.775-100.970 -39.980  0.00  0.00     0.101 A 
BRANCH  14  17
ATOM     17  C   UNL d   1     -54.753-101.998 -38.042  0.00  0.00     0.148 A 
ATOM     18  N   UNL d   1     -54.713-101.372 -37.500  0.00  0.00    -0.227 NA
ATOM     19  C   UNL d   1     -54.717-101.496 -36.686  0.00  0.00     0.101 A 
ATOM     20  C   UNL d   1     -54.763-102.261 -36.395  0.00  0.00     0.021 A 
ATOM     21  C   UNL d   1     -54.803-102.879 -36.924  0.00  0.00     0.005 A 
ATOM     22  C   UNL d   1     -54.799-102.754 -37.739  0.00  0.00     0.037 A 
ENDBRANCH  14  17
ENDBRANCH   1  11
BRANCH   4  23
ATOM     23  C   UNL d   1     -54.728-101.033 -43.737  0.00  0.00     0.019 A 
ATOM     24  C   UNL d   1     -54.717-101.675 -44.254  0.00  0.00     0.002 A 
ATOM     25  C   UNL d   1     -54.713-101.539 -45.077  0.00  0.00     0.000 A 
ATOM     26  C   UNL d   1     -54.720-100.775 -45.385  0.00  0.00     0.000 A 
ATOM     27  C   UNL d   1     -54.731-100.128 -44.865  0.00  0.00     0.000 A 
ATOM     28  C   UNL d   1     -54.735-100.256 -44.031  0.00  0.00     0.002 A 
ENDBRANCH   4  23
TORSDOF 3
ENDMDL
