MODEL 1
REMARK VINA RESULT:      -8.2      0.000      0.000
REMARK  5 active torsions:
REMARK  status: ('A' for Active; 'I' for Inactive)
REMARK    1  A    between atoms: C_2  and  C_3 
REMARK    2  A    between atoms: N_4  and  C_2 
REMARK    3  A    between atoms: C_10  and  N_4 
REMARK    4  A    between atoms: O_16  and  C_11 
REMARK    5  A    between atoms: C_19  and  O_16 
ROOT
ATOM      1  C   UNL d   1      51.609  33.505  53.167  0.00  0.00     0.153 C 
ATOM      2  S   UNL d   1      51.018  32.936  53.274  0.00  0.00    -0.056 SA
ENDROOT
BRANCH   1   3
ATOM      3  C   UNL d   1      52.374  33.349  53.433  0.00  0.00     0.109 A 
ATOM      4  N   UNL d   1      52.692  33.783  54.066  0.00  0.00    -0.243 NA
ATOM      5  C   UNL d   1      53.457  33.627  54.332  0.00  0.00     0.081 A 
ATOM      6  C   UNL d   1      53.910  33.039  53.970  0.00  0.00     0.018 A 
ATOM      7  C   UNL d   1      53.769  34.060  54.961  0.00  0.00     0.019 A 
ATOM      8  C   UNL d   1      53.602  32.600  53.337  0.00  0.00     0.003 A 
ATOM      9  C   UNL d   1      54.674  32.883  54.236  0.00  0.00     0.002 A 
ATOM     10  C   UNL d   1      52.832  32.754  53.066  0.00  0.00     0.021 A 
ATOM     11  C   UNL d   1      54.987  33.315  54.864  0.00  0.00     0.000 A 
ATOM     12  C   UNL d   1      54.534  33.904  55.227  0.00  0.00     0.002 A 
ENDBRANCH   1   3
BRANCH   1  13
ATOM     13  N   UNL d   1      51.439  34.224  52.797  0.00  0.00    -0.233 NA
BRANCH  13  14
ATOM     14  C   UNL d   1      50.676  34.369  52.509  0.00  0.00     0.083 A 
ATOM     15  C   UNL d   1      50.501  34.204  51.718  0.00  0.00     0.021 A 
ATOM     16  C   UNL d   1      49.740  34.351  51.438  0.00  0.00     0.026 A 
ATOM     17  C   UNL d   1      49.161  34.658  51.938  0.00  0.00     0.100 A 
ATOM     18  C   UNL d   1      49.346  34.821  52.731  0.00  0.00     0.026 A 
ATOM     19  C   UNL d   1      50.103  34.676  53.016  0.00  0.00     0.021 A 
BRANCH  17  20
ATOM     20  O   UNL d   1      48.395  34.804  51.650  0.00  0.00    -0.305 OA
BRANCH  20  21
ATOM     21  C   UNL d   1      48.043  35.541  51.775  0.00  0.00     0.123 C 
ATOM     22  C   UNL d   1      47.276  35.678  51.509  0.00  0.00     0.029 C 
ENDBRANCH  20  21
ENDBRANCH  17  20
ENDBRANCH  13  14
ENDBRANCH   1  13
TORSDOF 5
ENDMDL
MODEL 2
REMARK VINA RESULT:      -7.9      0.794      1.101
REMARK  5 active torsions:
REMARK  status: ('A' for Active; 'I' for Inactive)
REMARK    1  A    between atoms: C_2  and  C_3 
REMARK    2  A    between atoms: N_4  and  C_2 
REMARK    3  A    between atoms: C_10  and  N_4 
REMARK    4  A    between atoms: O_16  and  C_11 
REMARK    5  A    between atoms: C_19  and  O_16 
ROOT
ATOM      1  C   UNL d   1      51.673  34.155  52.870  0.00  0.00     0.153 C 
ATOM      2  S   UNL d   1      51.808  34.416  52.096  0.00  0.00    -0.056 SA
ENDROOT
BRANCH   1   3
ATOM      3  C   UNL d   1      52.306  34.107  53.398  0.00  0.00     0.109 A 
ATOM      4  N   UNL d   1      52.597  33.366  53.635  0.00  0.00    -0.243 NA
ATOM      5  C   UNL d   1      53.229  33.319  54.163  0.00  0.00     0.081 A 
ATOM      6  C   UNL d   1      53.575  34.009  54.456  0.00  0.00     0.018 A 
ATOM      7  C   UNL d   1      53.515  32.582  54.396  0.00  0.00     0.019 A 
ATOM      8  C   UNL d   1      53.292  34.754  54.226  0.00  0.00     0.003 A 
ATOM      9  C   UNL d   1      54.207  33.962  54.983  0.00  0.00     0.002 A 
ATOM     10  C   UNL d   1      52.655  34.805  53.695  0.00  0.00     0.021 A 
ATOM     11  C   UNL d   1      54.493  33.225  55.217  0.00  0.00     0.000 A 
ATOM     12  C   UNL d   1      54.147  32.535  54.923  0.00  0.00     0.002 A 
ENDBRANCH   1   3
BRANCH   1  13
ATOM     13  N   UNL d   1      50.914  33.942  53.115  0.00  0.00    -0.233 NA
BRANCH  13  14
ATOM     14  C   UNL d   1      50.252  34.284  52.752  0.00  0.00     0.083 A 
ATOM     15  C   UNL d   1      50.052  34.063  51.981  0.00  0.00     0.021 A 
ATOM     16  C   UNL d   1      49.392  34.407  51.625  0.00  0.00     0.026 A 
ATOM     17  C   UNL d   1      48.938  34.962  52.032  0.00  0.00     0.100 A 
ATOM     18  C   UNL d   1      49.147  35.177  52.806  0.00  0.00     0.026 A 
ATOM     19  C   UNL d   1      49.804  34.838  53.166  0.00  0.00     0.021 A 
BRANCH  17  20
ATOM     20  O   UNL d   1      48.274  35.305  51.669  0.00  0.00    -0.305 OA
BRANCH  20  21
ATOM     21  C   UNL d   1      47.709  35.694  52.129  0.00  0.00     0.123 C 
ATOM     22  C   UNL d   1      47.034  36.004  51.774  0.00  0.00     0.029 C 
ENDBRANCH  20  21
ENDBRANCH  17  20
ENDBRANCH  13  14
ENDBRANCH   1  13
TORSDOF 5
ENDMDL
MODEL 3
REMARK VINA RESULT:      -7.9      2.836      4.611
REMARK  5 active torsions:
REMARK  status: ('A' for Active; 'I' for Inactive)
REMARK    1  A    between atoms: C_2  and  C_3 
REMARK    2  A    between atoms: N_4  and  C_2 
REMARK    3  A    between atoms: C_10  and  N_4 
REMARK    4  A    between atoms: O_16  and  C_11 
REMARK    5  A    between atoms: C_19  and  O_16 
ROOT
ATOM      1  C   UNL d   1      52.264  32.557  53.021  0.00  0.00     0.153 C 
ATOM      2  S   UNL d   1      51.495  32.263  53.104  0.00  0.00    -0.056 SA
ENDROOT
BRANCH   1   3
ATOM      3  C   UNL d   1      52.426  33.335  53.240  0.00  0.00     0.109 A 
ATOM      4  N   UNL d   1      52.730  33.502  53.995  0.00  0.00    -0.243 NA
ATOM      5  C   UNL d   1      52.892  34.280  54.214  0.00  0.00     0.081 A 
ATOM      6  C   UNL d   1      52.752  34.897  53.683  0.00  0.00     0.018 A 
ATOM      7  C   UNL d   1      53.193  34.441  54.964  0.00  0.00     0.019 A 
ATOM      8  C   UNL d   1      52.449  34.742  52.927  0.00  0.00     0.003 A 
ATOM      9  C   UNL d   1      52.914  35.675  53.901  0.00  0.00     0.002 A 
ATOM     10  C   UNL d   1      52.285  33.959  52.703  0.00  0.00     0.021 A 
ATOM     11  C   UNL d   1      53.216  35.837  54.652  0.00  0.00     0.000 A 
ATOM     12  C   UNL d   1      53.355  35.220  55.183  0.00  0.00     0.002 A 
ENDBRANCH   1   3
BRANCH   1  13
ATOM     13  N   UNL d   1      52.867  32.078  52.721  0.00  0.00    -0.233 NA
BRANCH  13  14
ATOM     14  C   UNL d   1      52.980  31.316  53.027  0.00  0.00     0.083 A 
ATOM     15  C   UNL d   1      52.419  30.729  52.875  0.00  0.00     0.021 A 
ATOM     16  C   UNL d   1      52.538  29.973  53.182  0.00  0.00     0.026 A 
ATOM     17  C   UNL d   1      53.206  29.805  53.635  0.00  0.00     0.100 A 
ATOM     18  C   UNL d   1      53.764  30.402  53.783  0.00  0.00     0.026 A 
ATOM     19  C   UNL d   1      53.651  31.157  53.479  0.00  0.00     0.021 A 
BRANCH  17  20
ATOM     20  O   UNL d   1      53.321  29.042  53.943  0.00  0.00    -0.305 OA
BRANCH  20  21
ATOM     21  C   UNL d   1      53.332  28.926  54.761  0.00  0.00     0.123 C 
ATOM     22  C   UNL d   1      53.508  28.183  55.066  0.00  0.00     0.029 C 
ENDBRANCH  20  21
ENDBRANCH  17  20
ENDBRANCH  13  14
ENDBRANCH   1  13
TORSDOF 5
ENDMDL
MODEL 4
REMARK VINA RESULT:      -7.6      2.488      5.171
REMARK  5 active torsions:
REMARK  status: ('A' for Active; 'I' for Inactive)
REMARK    1  A    between atoms: C_2  and  C_3 
REMARK    2  A    between atoms: N_4  and  C_2 
REMARK    3  A    between atoms: C_10  and  N_4 
REMARK    4  A    between atoms: O_16  and  C_11 
REMARK    5  A    between atoms: C_19  and  O_16 
ROOT
ATOM      1  C   UNL d   1      52.732  32.869  53.072  0.00  0.00     0.153 C 
ATOM      2  S   UNL d   1      53.329  33.111  53.592  0.00  0.00    -0.056 SA
ENDROOT
BRANCH   1   3
ATOM      3  C   UNL d   1      52.033  33.305  53.027  0.00  0.00     0.109 A 
ATOM      4  N   UNL d   1      51.696  33.477  52.288  0.00  0.00    -0.243 NA
ATOM      5  C   UNL d   1      50.997  33.913  52.243  0.00  0.00     0.081 A 
ATOM      6  C   UNL d   1      50.631  34.180  52.934  0.00  0.00     0.018 A 
ATOM      7  C   UNL d   1      50.666  34.083  51.508  0.00  0.00     0.019 A 
ATOM      8  C   UNL d   1      50.959  34.013  53.677  0.00  0.00     0.003 A 
ATOM      9  C   UNL d   1      49.933  34.615  52.889  0.00  0.00     0.002 A 
ATOM     10  C   UNL d   1      51.663  33.574  53.725  0.00  0.00     0.021 A 
ATOM     11  C   UNL d   1      49.600  34.785  52.154  0.00  0.00     0.000 A 
ATOM     12  C   UNL d   1      49.967  34.519  51.463  0.00  0.00     0.002 A 
ENDBRANCH   1   3
BRANCH   1  13
ATOM     13  N   UNL d   1      52.832  32.198  52.601  0.00  0.00    -0.233 NA
BRANCH  13  14
ATOM     14  C   UNL d   1      53.023  31.472  52.951  0.00  0.00     0.083 A 
ATOM     15  C   UNL d   1      53.713  31.404  53.400  0.00  0.00     0.021 A 
ATOM     16  C   UNL d   1      53.897  30.679  53.745  0.00  0.00     0.026 A 
ATOM     17  C   UNL d   1      53.399  30.029  53.646  0.00  0.00     0.100 A 
ATOM     18  C   UNL d   1      52.707  30.107  53.194  0.00  0.00     0.026 A 
ATOM     19  C   UNL d   1      52.519  30.827  52.847  0.00  0.00     0.021 A 
BRANCH  17  20
ATOM     20  O   UNL d   1      53.589  29.300  53.997  0.00  0.00    -0.305 OA
BRANCH  20  21
ATOM     21  C   UNL d   1      53.260  29.098  54.727  0.00  0.00     0.123 C 
ATOM     22  C   UNL d   1      53.482  28.397  55.096  0.00  0.00     0.029 C 
ENDBRANCH  20  21
ENDBRANCH  17  20
ENDBRANCH  13  14
ENDBRANCH   1  13
TORSDOF 5
ENDMDL
MODEL 5
REMARK VINA RESULT:      -7.6      1.631      5.192
REMARK  5 active torsions:
REMARK  status: ('A' for Active; 'I' for Inactive)
REMARK    1  A    between atoms: C_2  and  C_3 
REMARK    2  A    between atoms: N_4  and  C_2 
REMARK    3  A    between atoms: C_10  and  N_4 
REMARK    4  A    between atoms: O_16  and  C_11 
REMARK    5  A    between atoms: C_19  and  O_16 
ROOT
ATOM      1  C   UNL d   1      50.506  34.171  52.748  0.00  0.00     0.153 C 
ATOM      2  S   UNL d   1      50.462  33.561  53.306  0.00  0.00    -0.056 SA
ENDROOT
BRANCH   1   3
ATOM      3  C   UNL d   1      49.813  34.539  52.496  0.00  0.00     0.109 A 
ATOM      4  N   UNL d   1      49.406  35.055  53.004  0.00  0.00    -0.243 NA
ATOM      5  C   UNL d   1      48.712  35.424  52.752  0.00  0.00     0.081 A 
ATOM      6  C   UNL d   1      48.420  35.281  51.993  0.00  0.00     0.018 A 
ATOM      7  C   UNL d   1      48.311  35.934  53.260  0.00  0.00     0.019 A 
ATOM      8  C   UNL d   1      48.819  34.768  51.477  0.00  0.00     0.003 A 
ATOM      9  C   UNL d   1      47.728  35.649  51.741  0.00  0.00     0.002 A 
ATOM     10  C   UNL d   1      49.518  34.395  51.728  0.00  0.00     0.021 A 
ATOM     11  C   UNL d   1      47.326  36.160  52.248  0.00  0.00     0.000 A 
ATOM     12  C   UNL d   1      47.618  36.303  53.008  0.00  0.00     0.002 A 
ENDBRANCH   1   3
BRANCH   1  13
ATOM     13  N   UNL d   1      51.236  34.410  52.444  0.00  0.00    -0.233 NA
BRANCH  13  14
ATOM     14  C   UNL d   1      51.934  34.224  52.849  0.00  0.00     0.083 A 
ATOM     15  C   UNL d   1      52.255  33.466  52.781  0.00  0.00     0.021 A 
ATOM     16  C   UNL d   1      52.950  33.287  53.187  0.00  0.00     0.026 A 
ATOM     17  C   UNL d   1      53.319  33.856  53.656  0.00  0.00     0.100 A 
ATOM     18  C   UNL d   1      52.989  34.615  53.719  0.00  0.00     0.026 A 
ATOM     19  C   UNL d   1      52.296  34.799  53.316  0.00  0.00     0.021 A 
BRANCH  17  20
ATOM     20  O   UNL d   1      54.019  33.671  54.063  0.00  0.00    -0.305 OA
BRANCH  20  21
ATOM     21  C   UNL d   1      53.985  33.448  54.858  0.00  0.00     0.123 C 
ATOM     22  C   UNL d   1      54.681  33.302  55.272  0.00  0.00     0.029 C 
ENDBRANCH  20  21
ENDBRANCH  17  20
ENDBRANCH  13  14
ENDBRANCH   1  13
TORSDOF 5
ENDMDL
MODEL 6
REMARK VINA RESULT:      -7.5      1.051      1.647
REMARK  5 active torsions:
REMARK  status: ('A' for Active; 'I' for Inactive)
REMARK    1  A    between atoms: C_2  and  C_3 
REMARK    2  A    between atoms: N_4  and  C_2 
REMARK    3  A    between atoms: C_10  and  N_4 
REMARK    4  A    between atoms: O_16  and  C_11 
REMARK    5  A    between atoms: C_19  and  O_16 
ROOT
ATOM      1  C   UNL d   1      51.604  33.809  52.925  0.00  0.00     0.153 C 
ATOM      2  S   UNL d   1      51.822  34.451  52.450  0.00  0.00    -0.056 SA
ENDROOT
BRANCH   1   3
ATOM      3  C   UNL d   1      52.179  33.270  53.167  0.00  0.00     0.109 A 
ATOM      4  N   UNL d   1      52.143  32.479  52.915  0.00  0.00    -0.243 NA
ATOM      5  C   UNL d   1      52.719  31.940  53.156  0.00  0.00     0.081 A 
ATOM      6  C   UNL d   1      53.333  32.186  53.651  0.00  0.00     0.018 A 
ATOM      7  C   UNL d   1      52.679  31.157  52.904  0.00  0.00     0.019 A 
ATOM      8  C   UNL d   1      53.379  32.973  53.909  0.00  0.00     0.003 A 
ATOM      9  C   UNL d   1      53.908  31.648  53.893  0.00  0.00     0.002 A 
ATOM     10  C   UNL d   1      52.800  33.518  53.667  0.00  0.00     0.021 A 
ATOM     11  C   UNL d   1      53.869  30.863  53.640  0.00  0.00     0.000 A 
ATOM     12  C   UNL d   1      53.255  30.618  53.146  0.00  0.00     0.002 A 
ENDBRANCH   1   3
BRANCH   1  13
ATOM     13  N   UNL d   1      50.817  33.706  53.157  0.00  0.00    -0.233 NA
BRANCH  13  14
ATOM     14  C   UNL d   1      50.223  34.176  52.821  0.00  0.00     0.083 A 
ATOM     15  C   UNL d   1      49.987  34.038  52.041  0.00  0.00     0.021 A 
ATOM     16  C   UNL d   1      49.395  34.508  51.713  0.00  0.00     0.026 A 
ATOM     17  C   UNL d   1      49.043  35.108  52.156  0.00  0.00     0.100 A 
ATOM     18  C   UNL d   1      49.287  35.239  52.938  0.00  0.00     0.026 A 
ATOM     19  C   UNL d   1      49.877  34.773  53.271  0.00  0.00     0.021 A 
BRANCH  17  20
ATOM     20  O   UNL d   1      48.447  35.580  51.820  0.00  0.00    -0.305 OA
BRANCH  20  21
ATOM     21  C   UNL d   1      47.696  35.600  52.165  0.00  0.00     0.123 C 
ATOM     22  C   UNL d   1      47.094  36.031  51.807  0.00  0.00     0.029 C 
ENDBRANCH  20  21
ENDBRANCH  17  20
ENDBRANCH  13  14
ENDBRANCH   1  13
TORSDOF 5
ENDMDL
MODEL 7
REMARK VINA RESULT:      -5.4      9.939     10.877
REMARK  5 active torsions:
REMARK  status: ('A' for Active; 'I' for Inactive)
REMARK    1  A    between atoms: C_2  and  C_3 
REMARK    2  A    between atoms: N_4  and  C_2 
REMARK    3  A    between atoms: C_10  and  N_4 
REMARK    4  A    between atoms: O_16  and  C_11 
REMARK    5  A    between atoms: C_19  and  O_16 
ROOT
ATOM      1  C   UNL d   1      45.024  27.669  57.371  0.00  0.00     0.153 C 
ATOM      2  S   UNL d   1      45.750  27.277  57.440  0.00  0.00    -0.056 SA
ENDROOT
BRANCH   1   3
ATOM      3  C   UNL d   1      44.983  28.476  57.534  0.00  0.00     0.109 A 
ATOM      4  N   UNL d   1      44.791  29.015  56.932  0.00  0.00    -0.243 NA
ATOM      5  C   UNL d   1      44.750  29.823  57.095  0.00  0.00     0.081 A 
ATOM      6  C   UNL d   1      44.899  30.098  57.860  0.00  0.00     0.018 A 
ATOM      7  C   UNL d   1      44.559  30.354  56.495  0.00  0.00     0.019 A 
ATOM      8  C   UNL d   1      45.092  29.569  58.469  0.00  0.00     0.003 A 
ATOM      9  C   UNL d   1      44.858  30.904  58.024  0.00  0.00     0.002 A 
ATOM     10  C   UNL d   1      45.134  28.755  58.307  0.00  0.00     0.021 A 
ATOM     11  C   UNL d   1      44.667  31.436  57.423  0.00  0.00     0.000 A 
ATOM     12  C   UNL d   1      44.518  31.161  56.659  0.00  0.00     0.002 A 
ENDBRANCH   1   3
BRANCH   1  13
ATOM     13  N   UNL d   1      44.345  27.259  57.140  0.00  0.00    -0.233 NA
BRANCH  13  14
ATOM     14  C   UNL d   1      44.400  26.463  56.916  0.00  0.00     0.083 A 
ATOM     15  C   UNL d   1      44.319  25.872  57.487  0.00  0.00     0.021 A 
ATOM     16  C   UNL d   1      44.375  25.082  57.257  0.00  0.00     0.026 A 
ATOM     17  C   UNL d   1      44.509  24.884  56.468  0.00  0.00     0.100 A 
ATOM     18  C   UNL d   1      44.589  25.485  55.901  0.00  0.00     0.026 A 
ATOM     19  C   UNL d   1      44.535  26.274  56.125  0.00  0.00     0.021 A 
BRANCH  17  20
ATOM     20  O   UNL d   1      44.564  24.087  56.241  0.00  0.00    -0.305 OA
BRANCH  20  21
ATOM     21  C   UNL d   1      45.067  23.869  55.623  0.00  0.00     0.123 C 
ATOM     22  C   UNL d   1      45.178  23.073  55.447  0.00  0.00     0.029 C 
ENDBRANCH  20  21
ENDBRANCH  17  20
ENDBRANCH  13  14
ENDBRANCH   1  13
TORSDOF 5
ENDMDL
