MODEL 1
REMARK VINA RESULT:      67.6      0.000      0.000
REMARK  7 active torsions:
REMARK  status: ('A' for Active; 'I' for Inactive)
REMARK    1  A    between atoms: N_10  and  C_1 
REMARK    2  A    between atoms: C_11  and  C_2 
REMARK    3  A    between atoms: C_7  and  S_14 
REMARK       I    between atoms: C_13  and  N_10 
REMARK    4  A    between atoms: O_18  and  C_11 
REMARK    5  A    between atoms: C_17  and  C_13 
REMARK    6  A    between atoms: S_14  and  C_17 
REMARK    7  A    between atoms: C_22  and  O_18 
ROOT
ATOM      1  C   UNL d   1     -55.286 -99.973 -43.377  0.00  0.00     0.119 A 
ATOM      2  C   UNL d   1     -55.597 -99.965 -44.143  0.00  0.00     0.088 A 
ATOM      3  S   UNL d   1     -54.976-100.706 -43.229  0.00  0.00    -0.068 SA
ATOM      4  C   UNL d   1     -55.470-100.720 -44.470  0.00  0.00     0.013 A 
ATOM      5  C   UNL d   1     -55.084-101.181 -43.905  0.00  0.00     0.031 A 
ATOM      6  C   UNL d   1     -55.707-100.930 -45.241  0.00  0.00     0.001 A 
ATOM      7  C   UNL d   1     -54.838-101.969 -43.964  0.00  0.00     0.006 A 
ATOM      8  C   UNL d   1     -55.612-101.655 -45.621  0.00  0.00     0.000 A 
ATOM      9  C   UNL d   1     -54.921-102.483 -44.609  0.00  0.00     0.001 A 
ATOM     10  C   UNL d   1     -55.262-102.341 -45.337  0.00  0.00     0.000 A 
ENDROOT
BRANCH   1  11
ATOM     11  N   UNL d   1     -55.289 -99.338 -42.841  0.00  0.00    -0.201 NA
ATOM     12  C   UNL d   1     -55.033 -99.453 -42.059  0.00  0.00     0.286 C 
ATOM     13  O   UNL d   1     -55.040 -98.815 -41.535  0.00  0.00    -0.265 OA
BRANCH  12  14
ATOM     14  C   UNL d   1     -54.776-100.192 -41.806  0.00  0.00     0.100 C 
BRANCH  14  15
ATOM     15  S   UNL d   1     -54.716-100.357 -40.998  0.00  0.00    -0.054 SA
BRANCH  15  16
ATOM     16  C   UNL d   1     -54.863-101.118 -40.715  0.00  0.00     0.164 A 
ATOM     17  S   UNL d   1     -55.008-101.403 -39.953  0.00  0.00    -0.039 SA
ATOM     18  C   UNL d   1     -55.118-102.227 -40.009  0.00  0.00     0.134 A 
ATOM     19  C   UNL d   1     -55.278-102.738 -39.379  0.00  0.00     0.030 C 
ATOM     20  N   UNL d   1     -55.040-102.439 -40.801  0.00  0.00    -0.140 NA
ATOM     21  N   UNL d   1     -54.883-101.761 -41.242  0.00  0.00    -0.134 NA
ENDBRANCH  15  16
ENDBRANCH  14  15
ENDBRANCH  12  14
ENDBRANCH   1  11
BRANCH   2  22
ATOM     22  C   UNL d   1     -55.966 -99.330 -44.518  0.00  0.00     0.302 C 
ATOM     23  O   UNL d   1     -55.604 -98.959 -45.168  0.00  0.00    -0.259 OA
BRANCH  22  24
ATOM     24  O   UNL d   1     -56.702 -99.059 -44.247  0.00  0.00    -0.271 OA
BRANCH  24  25
ATOM     25  C   UNL d   1     -57.369 -99.119 -44.728  0.00  0.00     0.126 C 
ATOM     26  C   UNL d   1     -58.083 -98.779 -44.498  0.00  0.00     0.029 C 
ENDBRANCH  24  25
ENDBRANCH  22  24
ENDBRANCH   2  22
TORSDOF 7
ENDMDL
