MODEL 1
REMARK VINA RESULT:       9.3      0.000      0.000
REMARK  7 active torsions:
REMARK  status: ('A' for Active; 'I' for Inactive)
REMARK    1  A    between atoms: C_4  and  N_1 
REMARK    2  A    between atoms: O_2  and  C_10 
REMARK    3  A    between atoms: C_3  and  O_2 
REMARK    4  A    between atoms: C_9  and  C_4 
REMARK    5  A    between atoms: C_12  and  C_6 
REMARK    6  A    between atoms: C_7  and  C_12 
REMARK    7  A    between atoms: C_10  and  C_9 
ROOT
ATOM      1  O   UNL d   1      46.096 -17.618  43.937  0.00  0.00    -0.302 OA
ENDROOT
BRANCH   1   2
ATOM      2  C   UNL d   1      46.139 -16.793  43.916  0.00  0.00     0.166 C 
BRANCH   2   3
ATOM      3  C   UNL d   1      45.819 -16.342  44.520  0.00  0.00     0.238 C 
ATOM      4  O   UNL d   1      45.192 -16.615  44.954  0.00  0.00    -0.283 OA
BRANCH   3   5
ATOM      5  C   UNL d   1      46.147 -15.601  44.678  0.00  0.00     0.125 C 
BRANCH   5   6
ATOM      6  N   UNL d   1      45.732 -14.924  44.517  0.00  0.00    -0.296 N 
ATOM      7  C   UNL d   1      46.039 -14.356  44.003  0.00  0.00     0.107 A 
ATOM      8  C   UNL d   1      45.615 -13.667  43.839  0.00  0.00     0.142 A 
ATOM      9  O   UNL d   1      44.887 -13.548  44.190  0.00  0.00    -0.300 OA
ATOM     10  C   UNL d   1      44.580 -14.099  44.695  0.00  0.00     0.142 A 
ATOM     11  C   UNL d   1      45.003 -14.789  44.859  0.00  0.00     0.107 A 
ENDBRANCH   5   6
ENDBRANCH   3   5
ENDBRANCH   2   3
ENDBRANCH   1   2
BRANCH   1  12
ATOM     12  C   UNL d   1      46.276 -18.061  43.257  0.00  0.00     0.100 A 
ATOM     13  C   UNL d   1      46.469 -18.868  43.325  0.00  0.00     0.023 A 
ATOM     14  C   UNL d   1      46.646 -19.308  42.657  0.00  0.00     0.002 A 
ATOM     15  C   UNL d   1      46.632 -18.947  41.919  0.00  0.00     0.000 A 
ATOM     16  C   UNL d   1      46.439 -18.141  41.851  0.00  0.00     0.002 A 
ATOM     17  C   UNL d   1      46.265 -17.716  42.524  0.00  0.00     0.025 A 
BRANCH  13  18
ATOM     18  C   UNL d   1      46.485 -19.241  44.074  0.00  0.00     0.002 C 
BRANCH  18  19
ATOM     19  C   UNL d   1      46.122 -19.981  44.186  0.00  0.00     0.000 C 
ATOM     20  C   UNL d   1      45.760 -20.143  44.891  0.00  0.00     0.000 C 
ENDBRANCH  18  19
ENDBRANCH  13  18
ENDBRANCH   1  12
TORSDOF 7
ENDMDL
