MODEL 1
REMARK VINA RESULT:      -7.3      0.000      0.000
REMARK  4 active torsions:
REMARK  status: ('A' for Active; 'I' for Inactive)
REMARK    1  A    between atoms: C_7  and  C_1 
REMARK    2  A    between atoms: N_6  and  C_3 
REMARK       I    between atoms: C_8  and  N_6 
REMARK    3  A    between atoms: C_12  and  C_8 
REMARK    4  A    between atoms: C_15  and  C_12 
ROOT
ATOM      1  C   UNL d   1     -49.087  13.911  22.723  0.00  0.00     0.206 A 
ATOM      2  O   UNL d   1     -48.418  14.159  23.134  0.00  0.00    -0.253 OA
ATOM      3  C   UNL d   1     -47.891  14.524  22.586  0.00  0.00     0.297 A 
ATOM      4  N   UNL d   1     -48.982  14.119  21.918  0.00  0.00    -0.119 NA
ATOM      5  N   UNL d   1     -48.249  14.493  21.846  0.00  0.00    -0.101 NA
ENDROOT
BRANCH   3   6
ATOM      6  N   UNL d   1     -47.174  14.842  22.766  0.00  0.00    -0.165 NA
ATOM      7  C   UNL d   1     -46.504  14.376  22.705  0.00  0.00     0.282 C 
ATOM      8  O   UNL d   1     -45.759  14.701  22.890  0.00  0.00    -0.265 OA
BRANCH   7   9
ATOM      9  C   UNL d   1     -46.549  13.593  22.463  0.00  0.00     0.063 C 
BRANCH   9  10
ATOM     10  C   UNL d   1     -45.878  13.116  22.450  0.00  0.00     0.005 A 
ATOM     11  C   UNL d   1     -45.807  12.479  22.982  0.00  0.00     0.003 A 
ATOM     12  C   UNL d   1     -45.130  12.007  22.960  0.00  0.00     0.030 A 
ATOM     13  C   UNL d   1     -44.527  12.156  22.425  0.00  0.00     0.140 A 
ATOM     14  C   UNL d   1     -44.597  12.787  21.898  0.00  0.00     0.030 A 
ATOM     15  F   UNL d   1     -43.856  11.686  22.406  0.00  0.00    -0.204 F 
ATOM     16  C   UNL d   1     -45.269  13.269  21.907  0.00  0.00     0.003 A 
ENDBRANCH   9  10
ENDBRANCH   7   9
ENDBRANCH   3   6
BRANCH   1  17
ATOM     17  C   UNL d   1     -49.731  13.532  23.041  0.00  0.00     0.043 A 
ATOM     18  C   UNL d   1     -50.408  13.980  23.262  0.00  0.00     0.004 A 
ATOM     19  C   UNL d   1     -51.064  13.603  23.585  0.00  0.00     0.000 A 
ATOM     20  C   UNL d   1     -50.415  14.791  23.156  0.00  0.00     0.000 C 
ATOM     21  C   UNL d   1     -51.062  12.781  23.695  0.00  0.00     0.000 A 
ATOM     22  C   UNL d   1     -50.383  12.345  23.472  0.00  0.00     0.000 A 
ATOM     23  C   UNL d   1     -49.727  12.734  23.147  0.00  0.00     0.004 A 
ATOM     24  C   UNL d   1     -50.358  11.527  23.572  0.00  0.00     0.000 C 
ENDBRANCH   1  17
TORSDOF 4
ENDMDL
MODEL 2
REMARK VINA RESULT:      -7.1      1.566      2.154
REMARK  4 active torsions:
REMARK  status: ('A' for Active; 'I' for Inactive)
REMARK    1  A    between atoms: C_7  and  C_1 
REMARK    2  A    between atoms: N_6  and  C_3 
REMARK       I    between atoms: C_8  and  N_6 
REMARK    3  A    between atoms: C_12  and  C_8 
REMARK    4  A    between atoms: C_15  and  C_12 
ROOT
ATOM      1  C   UNL d   1     -49.107  12.229  23.065  0.00  0.00     0.206 A 
ATOM      2  O   UNL d   1     -48.429  12.223  23.533  0.00  0.00    -0.253 OA
ATOM      3  C   UNL d   1     -47.959  11.559  23.309  0.00  0.00     0.297 A 
ATOM      4  N   UNL d   1     -49.065  11.571  22.547  0.00  0.00    -0.119 NA
ATOM      5  N   UNL d   1     -48.360  11.169  22.705  0.00  0.00    -0.101 NA
ENDROOT
BRANCH   3   6
ATOM      6  N   UNL d   1     -47.252  11.355  23.633  0.00  0.00    -0.165 NA
ATOM      7  C   UNL d   1     -46.567  11.704  23.352  0.00  0.00     0.282 C 
ATOM      8  O   UNL d   1     -45.832  11.495  23.685  0.00  0.00    -0.265 OA
BRANCH   7   9
ATOM      9  C   UNL d   1     -46.589  12.259  22.747  0.00  0.00     0.063 C 
BRANCH   9  10
ATOM     10  C   UNL d   1     -45.896  12.612  22.474  0.00  0.00     0.005 A 
ATOM     11  C   UNL d   1     -45.878  13.430  22.319  0.00  0.00     0.003 A 
ATOM     12  C   UNL d   1     -45.179  13.774  22.045  0.00  0.00     0.030 A 
ATOM     13  C   UNL d   1     -44.504  13.325  21.925  0.00  0.00     0.140 A 
ATOM     14  C   UNL d   1     -44.522  12.515  22.079  0.00  0.00     0.030 A 
ATOM     15  F   UNL d   1     -43.813  13.669  21.654  0.00  0.00    -0.204 F 
ATOM     16  C   UNL d   1     -45.215  12.154  22.354  0.00  0.00     0.003 A 
ENDBRANCH   9  10
ENDBRANCH   7   9
ENDBRANCH   3   6
BRANCH   1  17
ATOM     17  C   UNL d   1     -49.707  12.775  23.100  0.00  0.00     0.043 A 
ATOM     18  C   UNL d   1     -50.452  12.553  23.421  0.00  0.00     0.004 A 
ATOM     19  C   UNL d   1     -51.064  13.101  23.460  0.00  0.00     0.000 A 
ATOM     20  C   UNL d   1     -50.569  11.791  23.696  0.00  0.00     0.000 C 
ATOM     21  C   UNL d   1     -50.951  13.875  23.182  0.00  0.00     0.000 A 
ATOM     22  C   UNL d   1     -50.206  14.085  22.865  0.00  0.00     0.000 A 
ATOM     23  C   UNL d   1     -49.595  13.525  22.830  0.00  0.00     0.004 A 
ATOM     24  C   UNL d   1     -50.069  14.848  22.583  0.00  0.00     0.000 C 
ENDBRANCH   1  17
TORSDOF 4
ENDMDL
MODEL 3
REMARK VINA RESULT:      -6.8      8.367      9.678
REMARK  4 active torsions:
REMARK  status: ('A' for Active; 'I' for Inactive)
REMARK    1  A    between atoms: C_7  and  C_1 
REMARK    2  A    between atoms: N_6  and  C_3 
REMARK       I    between atoms: C_8  and  N_6 
REMARK    3  A    between atoms: C_12  and  C_8 
REMARK    4  A    between atoms: C_15  and  C_12 
ROOT
ATOM      1  C   UNL d   1     -40.044  14.369  18.245  0.00  0.00     0.206 A 
ATOM      2  O   UNL d   1     -39.916  14.897  18.864  0.00  0.00    -0.253 OA
ATOM      3  C   UNL d   1     -40.518  14.778  19.443  0.00  0.00     0.297 A 
ATOM      4  N   UNL d   1     -40.726  13.918  18.433  0.00  0.00    -0.119 NA
ATOM      5  N   UNL d   1     -41.007  14.176  19.166  0.00  0.00    -0.101 NA
ENDROOT
BRANCH   3   6
ATOM      6  N   UNL d   1     -40.591  15.183  20.133  0.00  0.00    -0.165 NA
ATOM      7  C   UNL d   1     -40.167  14.937  20.789  0.00  0.00     0.282 C 
ATOM      8  O   UNL d   1     -40.240  15.355  21.507  0.00  0.00    -0.265 OA
BRANCH   7   9
ATOM      9  C   UNL d   1     -39.670  14.285  20.754  0.00  0.00     0.063 C 
BRANCH   9  10
ATOM     10  C   UNL d   1     -39.237  14.050  21.415  0.00  0.00     0.005 A 
ATOM     11  C   UNL d   1     -38.437  14.270  21.490  0.00  0.00     0.003 A 
ATOM     12  C   UNL d   1     -38.012  14.030  22.156  0.00  0.00     0.030 A 
ATOM     13  C   UNL d   1     -38.364  13.578  22.743  0.00  0.00     0.140 A 
ATOM     14  C   UNL d   1     -39.156  13.359  22.668  0.00  0.00     0.030 A 
ATOM     15  F   UNL d   1     -37.940  13.341  23.402  0.00  0.00    -0.204 F 
ATOM     16  C   UNL d   1     -39.596  13.592  22.007  0.00  0.00     0.003 A 
ENDBRANCH   9  10
ENDBRANCH   7   9
ENDBRANCH   3   6
BRANCH   1  17
ATOM     17  C   UNL d   1     -39.592  14.298  17.575  0.00  0.00     0.043 A 
ATOM     18  C   UNL d   1     -39.737  14.808  16.921  0.00  0.00     0.004 A 
ATOM     19  C   UNL d   1     -39.283  14.742  16.238  0.00  0.00     0.000 A 
ATOM     20  C   UNL d   1     -40.331  15.369  16.963  0.00  0.00     0.000 C 
ATOM     21  C   UNL d   1     -38.680  14.175  16.191  0.00  0.00     0.000 A 
ATOM     22  C   UNL d   1     -38.544  13.673  16.846  0.00  0.00     0.000 A 
ATOM     23  C   UNL d   1     -39.007  13.747  17.530  0.00  0.00     0.004 A 
ATOM     24  C   UNL d   1     -37.950  13.101  16.822  0.00  0.00     0.000 C 
ENDBRANCH   1  17
TORSDOF 4
ENDMDL
MODEL 4
REMARK VINA RESULT:      -6.7      1.367      1.971
REMARK  4 active torsions:
REMARK  status: ('A' for Active; 'I' for Inactive)
REMARK    1  A    between atoms: C_7  and  C_1 
REMARK    2  A    between atoms: N_6  and  C_3 
REMARK       I    between atoms: C_8  and  N_6 
REMARK    3  A    between atoms: C_12  and  C_8 
REMARK    4  A    between atoms: C_15  and  C_12 
ROOT
ATOM      1  C   UNL d   1     -47.670  13.707  22.606  0.00  0.00     0.206 A 
ATOM      2  O   UNL d   1     -47.060  13.470  22.107  0.00  0.00    -0.253 OA
ATOM      3  C   UNL d   1     -46.327  13.636  22.488  0.00  0.00     0.297 A 
ATOM      4  N   UNL d   1     -47.323  14.022  23.301  0.00  0.00    -0.119 NA
ATOM      5  N   UNL d   1     -46.502  13.973  23.218  0.00  0.00    -0.101 NA
ENDROOT
BRANCH   3   6
ATOM      6  N   UNL d   1     -45.597  13.487  22.185  0.00  0.00    -0.165 NA
ATOM      7  C   UNL d   1     -45.202  12.806  22.408  0.00  0.00     0.282 C 
ATOM      8  O   UNL d   1     -44.445  12.648  22.095  0.00  0.00    -0.265 OA
BRANCH   7   9
ATOM      9  C   UNL d   1     -45.537  12.271  22.933  0.00  0.00     0.063 C 
BRANCH   9  10
ATOM     10  C   UNL d   1     -45.150  11.569  23.125  0.00  0.00     0.005 A 
ATOM     11  C   UNL d   1     -45.564  10.955  23.506  0.00  0.00     0.003 A 
ATOM     12  C   UNL d   1     -45.167  10.256  23.693  0.00  0.00     0.030 A 
ATOM     13  C   UNL d   1     -44.374  10.156  23.510  0.00  0.00     0.140 A 
ATOM     14  C   UNL d   1     -43.964  10.765  23.133  0.00  0.00     0.030 A 
ATOM     15  F   UNL d   1     -43.984   9.462  23.698  0.00  0.00    -0.204 F 
ATOM     16  C   UNL d   1     -44.347  11.473  22.938  0.00  0.00     0.003 A 
ENDBRANCH   9  10
ENDBRANCH   7   9
ENDBRANCH   3   6
BRANCH   1  17
ATOM     17  C   UNL d   1     -48.466  13.646  22.452  0.00  0.00     0.043 A 
ATOM     18  C   UNL d   1     -48.914  14.342  22.302  0.00  0.00     0.004 A 
ATOM     19  C   UNL d   1     -49.719  14.289  22.145  0.00  0.00     0.000 A 
ATOM     20  C   UNL d   1     -48.549  15.075  22.312  0.00  0.00     0.000 C 
ATOM     21  C   UNL d   1     -50.094  13.548  22.134  0.00  0.00     0.000 A 
ATOM     22  C   UNL d   1     -49.639  12.862  22.285  0.00  0.00     0.000 A 
ATOM     23  C   UNL d   1     -48.827  12.927  22.442  0.00  0.00     0.004 A 
ATOM     24  C   UNL d   1     -49.990  12.116  22.279  0.00  0.00     0.000 C 
ENDBRANCH   1  17
TORSDOF 4
ENDMDL
MODEL 5
REMARK VINA RESULT:      -6.4      8.574      9.744
REMARK  4 active torsions:
REMARK  status: ('A' for Active; 'I' for Inactive)
REMARK    1  A    between atoms: C_7  and  C_1 
REMARK    2  A    between atoms: N_6  and  C_3 
REMARK       I    between atoms: C_8  and  N_6 
REMARK    3  A    between atoms: C_12  and  C_8 
REMARK    4  A    between atoms: C_15  and  C_12 
ROOT
ATOM      1  C   UNL d   1     -39.636  14.917  20.840  0.00  0.00     0.206 A 
ATOM      2  O   UNL d   1     -39.934  14.334  20.340  0.00  0.00    -0.253 OA
ATOM      3  C   UNL d   1     -40.438  14.704  19.774  0.00  0.00     0.297 A 
ATOM      4  N   UNL d   1     -39.950  15.652  20.589  0.00  0.00    -0.119 NA
ATOM      5  N   UNL d   1     -40.439  15.511  19.938  0.00  0.00    -0.101 NA
ENDROOT
BRANCH   3   6
ATOM      6  N   UNL d   1     -40.838  14.328  19.187  0.00  0.00    -0.165 NA
ATOM      7  C   UNL d   1     -40.466  14.197  18.469  0.00  0.00     0.282 C 
ATOM      8  O   UNL d   1     -40.878  13.807  17.857  0.00  0.00    -0.265 OA
BRANCH   7   9
ATOM      9  C   UNL d   1     -39.694  14.443  18.337  0.00  0.00     0.063 C 
BRANCH   9  10
ATOM     10  C   UNL d   1     -39.285  14.205  17.663  0.00  0.00     0.005 A 
ATOM     11  C   UNL d   1     -38.908  13.462  17.645  0.00  0.00     0.003 A 
ATOM     12  C   UNL d   1     -38.500  13.233  16.965  0.00  0.00     0.030 A 
ATOM     13  C   UNL d   1     -38.460  13.723  16.309  0.00  0.00     0.140 A 
ATOM     14  C   UNL d   1     -38.833  14.458  16.327  0.00  0.00     0.030 A 
ATOM     15  F   UNL d   1     -38.055  13.492  15.636  0.00  0.00    -0.204 F 
ATOM     16  C   UNL d   1     -39.246  14.704  17.001  0.00  0.00     0.003 A 
ENDBRANCH   9  10
ENDBRANCH   7   9
ENDBRANCH   3   6
BRANCH   1  17
ATOM     17  C   UNL d   1     -39.128  14.799  21.463  0.00  0.00     0.043 A 
ATOM     18  C   UNL d   1     -38.460  15.302  21.555  0.00  0.00     0.004 A 
ATOM     19  C   UNL d   1     -37.942  15.188  22.183  0.00  0.00     0.000 A 
ATOM     20  C   UNL d   1     -38.324  15.905  21.018  0.00  0.00     0.000 C 
ATOM     21  C   UNL d   1     -38.075  14.578  22.729  0.00  0.00     0.000 A 
ATOM     22  C   UNL d   1     -38.743  14.084  22.629  0.00  0.00     0.000 A 
ATOM     23  C   UNL d   1     -39.259  14.207  21.992  0.00  0.00     0.004 A 
ATOM     24  C   UNL d   1     -38.896  13.471  23.160  0.00  0.00     0.000 C 
ENDBRANCH   1  17
TORSDOF 4
ENDMDL
MODEL 6
REMARK VINA RESULT:      -6.0      2.083      4.780
REMARK  4 active torsions:
REMARK  status: ('A' for Active; 'I' for Inactive)
REMARK    1  A    between atoms: C_7  and  C_1 
REMARK    2  A    between atoms: N_6  and  C_3 
REMARK       I    between atoms: C_8  and  N_6 
REMARK    3  A    between atoms: C_12  and  C_8 
REMARK    4  A    between atoms: C_15  and  C_12 
ROOT
ATOM      1  C   UNL d   1     -45.548  12.227  22.943  0.00  0.00     0.206 A 
ATOM      2  O   UNL d   1     -46.060  12.671  23.411  0.00  0.00    -0.253 OA
ATOM      3  C   UNL d   1     -46.314  13.339  22.964  0.00  0.00     0.297 A 
ATOM      4  N   UNL d   1     -45.480  12.614  22.202  0.00  0.00    -0.119 NA
ATOM      5  N   UNL d   1     -45.952  13.292  22.226  0.00  0.00    -0.101 NA
ENDROOT
BRANCH   3   6
ATOM      6  N   UNL d   1     -46.818  13.911  23.221  0.00  0.00    -0.165 NA
ATOM      7  C   UNL d   1     -47.576  13.945  22.913  0.00  0.00     0.282 C 
ATOM      8  O   UNL d   1     -48.102  14.536  23.178  0.00  0.00    -0.265 OA
BRANCH   7   9
ATOM      9  C   UNL d   1     -47.830  13.407  22.347  0.00  0.00     0.063 C 
BRANCH   9  10
ATOM     10  C   UNL d   1     -48.632  13.319  22.180  0.00  0.00     0.005 A 
ATOM     11  C   UNL d   1     -48.957  13.666  21.496  0.00  0.00     0.003 A 
ATOM     12  C   UNL d   1     -49.761  13.572  21.337  0.00  0.00     0.030 A 
ATOM     13  C   UNL d   1     -50.245  13.144  21.842  0.00  0.00     0.140 A 
ATOM     14  C   UNL d   1     -49.924  12.800  22.520  0.00  0.00     0.030 A 
ATOM     15  F   UNL d   1     -51.043  13.052  21.682  0.00  0.00    -0.204 F 
ATOM     16  C   UNL d   1     -49.119  12.885  22.693  0.00  0.00     0.003 A 
ENDBRANCH   9  10
ENDBRANCH   7   9
ENDBRANCH   3   6
BRANCH   1  17
ATOM     17  C   UNL d   1     -45.177  11.538  23.160  0.00  0.00     0.043 A 
ATOM     18  C   UNL d   1     -45.631  10.904  23.476  0.00  0.00     0.004 A 
ATOM     19  C   UNL d   1     -45.262  10.203  23.698  0.00  0.00     0.000 A 
ATOM     20  C   UNL d   1     -46.441  10.983  23.562  0.00  0.00     0.000 C 
ATOM     21  C   UNL d   1     -44.441  10.119  23.612  0.00  0.00     0.000 A 
ATOM     22  C   UNL d   1     -43.998  10.755  23.298  0.00  0.00     0.000 A 
ATOM     23  C   UNL d   1     -44.380  11.458  23.077  0.00  0.00     0.004 A 
ATOM     24  C   UNL d   1     -43.182  10.694  23.204  0.00  0.00     0.000 C 
ENDBRANCH   1  17
TORSDOF 4
ENDMDL
MODEL 7
REMARK VINA RESULT:      -4.7      7.881     10.639
REMARK  4 active torsions:
REMARK  status: ('A' for Active; 'I' for Inactive)
REMARK    1  A    between atoms: C_7  and  C_1 
REMARK    2  A    between atoms: N_6  and  C_3 
REMARK       I    between atoms: C_8  and  N_6 
REMARK    3  A    between atoms: C_12  and  C_8 
REMARK    4  A    between atoms: C_15  and  C_12 
ROOT
ATOM      1  C   UNL d   1     -38.102  13.622  18.110  0.00  0.00     0.206 A 
ATOM      2  O   UNL d   1     -38.069  14.165  18.728  0.00  0.00    -0.253 OA
ATOM      3  C   UNL d   1     -38.094  13.738  19.456  0.00  0.00     0.297 A 
ATOM      4  N   UNL d   1     -38.148  12.856  18.446  0.00  0.00    -0.119 NA
ATOM      5  N   UNL d   1     -38.142  12.938  19.268  0.00  0.00    -0.101 NA
ENDROOT
BRANCH   3   6
ATOM      6  N   UNL d   1     -38.074  14.064  20.190  0.00  0.00    -0.165 NA
ATOM      7  C   UNL d   1     -38.762  14.369  20.513  0.00  0.00     0.282 C 
ATOM      8  O   UNL d   1     -38.745  14.707  21.275  0.00  0.00    -0.265 OA
BRANCH   7   9
ATOM      9  C   UNL d   1     -39.471  14.348  20.100  0.00  0.00     0.063 C 
BRANCH   9  10
ATOM     10  C   UNL d   1     -40.142  14.724  20.396  0.00  0.00     0.005 A 
ATOM     11  C   UNL d   1     -40.163  15.555  20.455  0.00  0.00     0.003 A 
ATOM     12  C   UNL d   1     -40.840  15.922  20.753  0.00  0.00     0.030 A 
ATOM     13  C   UNL d   1     -41.490  15.484  20.990  0.00  0.00     0.140 A 
ATOM     14  C   UNL d   1     -41.470  14.661  20.931  0.00  0.00     0.030 A 
ATOM     15  F   UNL d   1     -42.160  15.851  21.285  0.00  0.00    -0.204 F 
ATOM     16  C   UNL d   1     -40.799  14.277  20.635  0.00  0.00     0.003 A 
ENDBRANCH   9  10
ENDBRANCH   7   9
ENDBRANCH   3   6
BRANCH   1  17
ATOM     17  C   UNL d   1     -38.093  13.799  17.317  0.00  0.00     0.043 A 
ATOM     18  C   UNL d   1     -38.010  13.179  16.755  0.00  0.00     0.004 A 
ATOM     19  C   UNL d   1     -37.999  13.351  15.950  0.00  0.00     0.000 A 
ATOM     20  C   UNL d   1     -37.940  12.404  17.006  0.00  0.00     0.000 C 
ATOM     21  C   UNL d   1     -38.069  14.136  15.690  0.00  0.00     0.000 A 
ATOM     22  C   UNL d   1     -38.151  14.745  16.258  0.00  0.00     0.000 A 
ATOM     23  C   UNL d   1     -38.161  14.561  17.066  0.00  0.00     0.004 A 
ATOM     24  C   UNL d   1     -38.223  15.532  16.023  0.00  0.00     0.000 C 
ENDBRANCH   1  17
TORSDOF 4
ENDMDL
