MODEL 1
REMARK VINA RESULT:      -6.9      0.000      0.000
REMARK  4 active torsions:
REMARK  status: ('A' for Active; 'I' for Inactive)
REMARK    1  A    between atoms: S_2  and  C_1 
REMARK    2  A    between atoms: C_10  and  S_2 
REMARK    3  A    between atoms: N_7  and  C_5 
REMARK    4  A    between atoms: C_11  and  N_7 
ROOT
ATOM      1  C   UNL d   1     -41.660-122.599 -51.617  0.00  0.00     0.187 A 
ATOM      2  N   UNL d   1     -41.715-123.130 -52.241  0.00  0.00    -0.208 NA
ATOM      3  C   UNL d   1     -41.298-121.909 -51.891  0.00  0.00     0.118 A 
ATOM      4  C   UNL d   1     -41.388-122.770 -52.903  0.00  0.00     0.196 A 
ATOM      5  S   UNL d   1     -41.134-122.027 -52.690  0.00  0.00    -0.035 SA
ATOM      6 CL   UNL d   1     -41.135-121.240 -51.455  0.00  0.00    -0.073 Cl
ENDROOT
BRANCH   1   7
ATOM      7  S   UNL d   1     -41.921-122.728 -50.844  0.00  0.00     0.228 S 
ATOM      8  O   UNL d   1     -41.228-123.156 -50.738  0.00  0.00    -0.216 OA
ATOM      9  O   UNL d   1     -42.611-122.298 -50.959  0.00  0.00    -0.216 OA
BRANCH   7  10
ATOM     10  C   UNL d   1     -42.110-122.902 -50.060  0.00  0.00     0.089 A 
ATOM     11  C   UNL d   1     -41.584-123.348 -49.594  0.00  0.00     0.011 A 
ATOM     12  C   UNL d   1     -41.779-123.521 -48.804  0.00  0.00     0.001 A 
ATOM     13  C   UNL d   1     -42.489-123.253 -48.480  0.00  0.00     0.000 A 
ATOM     14  C   UNL d   1     -43.014-122.805 -48.954  0.00  0.00     0.001 A 
ATOM     15  C   UNL d   1     -42.824-122.632 -49.738  0.00  0.00     0.011 A 
ENDBRANCH   7  10
ENDBRANCH   1   7
BRANCH   4  16
ATOM     16  N   UNL d   1     -41.330-123.109 -53.651  0.00  0.00    -0.221 NA
BRANCH  16  17
ATOM     17  C   UNL d   1     -41.629-122.710 -54.305  0.00  0.00     0.087 A 
ATOM     18  C   UNL d   1     -42.416-122.506 -54.328  0.00  0.00     0.061 A 
ATOM     19  C   UNL d   1     -42.719-122.108 -54.978  0.00  0.00     0.197 A 
ATOM     20  O   UNL d   1     -43.514-121.903 -54.998  0.00  0.00    -0.286 OA
ATOM     21  C   UNL d   1     -42.225-121.913 -55.609  0.00  0.00     0.042 A 
ATOM     22  C   UNL d   1     -41.428-122.122 -55.581  0.00  0.00     0.005 A 
ATOM     23  C   UNL d   1     -41.126-122.520 -54.932  0.00  0.00     0.019 A 
ENDBRANCH  16  17
ENDBRANCH   4  16
TORSDOF 4
ENDMDL
MODEL 2
REMARK VINA RESULT:      -4.9      1.096      1.401
REMARK  4 active torsions:
REMARK  status: ('A' for Active; 'I' for Inactive)
REMARK    1  A    between atoms: S_2  and  C_1 
REMARK    2  A    between atoms: C_10  and  S_2 
REMARK    3  A    between atoms: N_7  and  C_5 
REMARK    4  A    between atoms: C_11  and  N_7 
ROOT
ATOM      1  C   UNL d   1     -41.984-122.570 -50.625  0.00  0.00     0.187 A 
ATOM      2  N   UNL d   1     -41.353-122.581 -51.150  0.00  0.00    -0.208 NA
ATOM      3  C   UNL d   1     -42.611-122.164 -50.977  0.00  0.00     0.118 A 
ATOM      4  C   UNL d   1     -41.588-122.182 -51.828  0.00  0.00     0.196 A 
ATOM      5  S   UNL d   1     -42.354-121.928 -51.723  0.00  0.00    -0.035 SA
ATOM      6 CL   UNL d   1     -43.344-122.024 -50.649  0.00  0.00    -0.073 Cl
ENDROOT
BRANCH   1   7
ATOM      7  S   UNL d   1     -41.994-122.906 -49.870  0.00  0.00     0.228 S 
ATOM      8  O   UNL d   1     -41.788-122.162 -49.592  0.00  0.00    -0.216 OA
ATOM      9  O   UNL d   1     -42.200-123.647 -50.157  0.00  0.00    -0.216 OA
BRANCH   7  10
ATOM     10  C   UNL d   1     -41.983-123.166 -49.088  0.00  0.00     0.089 A 
ATOM     11  C   UNL d   1     -41.313-123.558 -48.788  0.00  0.00     0.011 A 
ATOM     12  C   UNL d   1     -41.307-123.817 -47.998  0.00  0.00     0.001 A 
ATOM     13  C   UNL d   1     -41.960-123.689 -47.509  0.00  0.00     0.000 A 
ATOM     14  C   UNL d   1     -42.631-123.295 -47.817  0.00  0.00     0.001 A 
ATOM     15  C   UNL d   1     -42.641-123.035 -48.600  0.00  0.00     0.011 A 
ENDBRANCH   7  10
ENDBRANCH   1   7
BRANCH   4  16
ATOM     16  N   UNL d   1     -41.123-122.062 -52.498  0.00  0.00    -0.221 NA
BRANCH  16  17
ATOM     17  C   UNL d   1     -41.345-122.396 -53.215  0.00  0.00     0.087 A 
ATOM     18  C   UNL d   1     -41.782-121.960 -53.745  0.00  0.00     0.061 A 
ATOM     19  C   UNL d   1     -42.006-122.288 -54.462  0.00  0.00     0.197 A 
ATOM     20  O   UNL d   1     -42.447-121.845 -54.995  0.00  0.00    -0.286 OA
ATOM     21  C   UNL d   1     -41.790-123.062 -54.647  0.00  0.00     0.042 A 
ATOM     22  C   UNL d   1     -41.347-123.501 -54.106  0.00  0.00     0.005 A 
ATOM     23  C   UNL d   1     -41.123-123.172 -53.390  0.00  0.00     0.019 A 
ENDBRANCH  16  17
ENDBRANCH   4  16
TORSDOF 4
ENDMDL
