MODEL 1
REMARK VINA RESULT:      -7.6      0.000      0.000
REMARK  4 active torsions:
REMARK  status: ('A' for Active; 'I' for Inactive)
REMARK    1  A    between atoms: N_5  and  C_1 
REMARK    2  A    between atoms: N_8  and  C_3 
REMARK    3  A    between atoms: C_13  and  N_8 
REMARK    4  A    between atoms: C_12  and  C_13 
ROOT
ATOM      1  C   UNL d   1     -46.916  13.809  22.786  0.00  0.00     0.200 A 
ATOM      2  C   UNL d   1     -46.204  13.395  22.760  0.00  0.00     0.288 A 
ATOM      3  C   UNL d   1     -47.618  13.432  23.027  0.00  0.00     0.109 A 
ATOM      4  N   UNL d   1     -46.190  12.593  22.977  0.00  0.00    -0.270 N 
ATOM      5  C   UNL d   1     -47.595  12.630  23.243  0.00  0.00     0.036 A 
ATOM      6  C   UNL d   1     -46.882  12.213  23.217  0.00  0.00     0.069 A 
ATOM      7  O   UNL d   1     -45.514  13.775  22.520  0.00  0.00    -0.265 OA
ATOM      8  C   UNL d   1     -45.479  12.178  22.951  0.00  0.00     0.102 C 
ATOM      9  C   UNL d   1     -48.286  12.249  23.483  0.00  0.00     0.003 A 
ATOM     10  C   UNL d   1     -46.862  11.417  23.432  0.00  0.00     0.018 A 
ATOM     11  C   UNL d   1     -48.265  11.452  23.698  0.00  0.00     0.000 A 
ATOM     12  C   UNL d   1     -47.554  11.037  23.672  0.00  0.00     0.002 A 
ENDROOT
BRANCH   3  13
ATOM     13  N   UNL d   1     -48.330  13.845  23.054  0.00  0.00    -0.242 NA
BRANCH  13  14
ATOM     14  C   UNL d   1     -48.909  13.710  22.482  0.00  0.00     0.100 C 
BRANCH  14  15
ATOM     15  C   UNL d   1     -49.627  14.110  22.521  0.00  0.00     0.030 A 
ATOM     16  C   UNL d   1     -50.170  14.030  21.904  0.00  0.00     0.059 A 
ATOM     17 CL   UNL d   1     -49.999  13.555  21.253  0.00  0.00    -0.082 Cl
ATOM     18  C   UNL d   1     -50.888  14.430  21.941  0.00  0.00     0.011 A 
ATOM     19  C   UNL d   1     -51.064  14.910  22.596  0.00  0.00     0.001 A 
ATOM     20  C   UNL d   1     -50.517  14.985  23.209  0.00  0.00     0.000 A 
ATOM     21  C   UNL d   1     -49.798  14.585  23.170  0.00  0.00     0.002 A 
ENDBRANCH  14  15
ENDBRANCH  13  14
ENDBRANCH   3  13
BRANCH   1  22
ATOM     22  N   UNL d   1     -46.939  14.610  22.570  0.00  0.00    -0.107 N 
ATOM     23  O   UNL d   1     -46.895  15.193  23.152  0.00  0.00    -0.531 OA
ATOM     24  O   UNL d   1     -47.006  14.826  21.774  0.00  0.00    -0.531 OA
ENDBRANCH   1  22
TORSDOF 4
ENDMDL
MODEL 2
REMARK VINA RESULT:      -7.3      1.893      4.146
REMARK  4 active torsions:
REMARK  status: ('A' for Active; 'I' for Inactive)
REMARK    1  A    between atoms: N_5  and  C_1 
REMARK    2  A    between atoms: N_8  and  C_3 
REMARK    3  A    between atoms: C_13  and  N_8 
REMARK    4  A    between atoms: C_12  and  C_13 
ROOT
ATOM      1  C   UNL d   1     -49.561  12.853  21.946  0.00  0.00     0.200 A 
ATOM      2  C   UNL d   1     -50.213  13.219  21.600  0.00  0.00     0.288 A 
ATOM      3  C   UNL d   1     -49.103  13.251  22.516  0.00  0.00     0.109 A 
ATOM      4  N   UNL d   1     -50.413  13.994  21.824  0.00  0.00    -0.270 N 
ATOM      5  C   UNL d   1     -49.309  14.026  22.734  0.00  0.00     0.036 A 
ATOM      6  C   UNL d   1     -49.963  14.395  22.388  0.00  0.00     0.069 A 
ATOM      7  O   UNL d   1     -50.662  12.818  21.037  0.00  0.00    -0.265 OA
ATOM      8  C   UNL d   1     -51.064  14.361  21.479  0.00  0.00     0.102 C 
ATOM      9  C   UNL d   1     -48.860  14.427  23.297  0.00  0.00     0.003 A 
ATOM     10  C   UNL d   1     -50.165  15.163  22.607  0.00  0.00     0.018 A 
ATOM     11  C   UNL d   1     -49.064  15.197  23.515  0.00  0.00     0.000 A 
ATOM     12  C   UNL d   1     -49.716  15.564  23.170  0.00  0.00     0.002 A 
ENDROOT
BRANCH   3  13
ATOM     13  N   UNL d   1     -48.451  12.885  22.861  0.00  0.00    -0.242 NA
BRANCH  13  14
ATOM     14  C   UNL d   1     -47.688  13.129  22.666  0.00  0.00     0.100 C 
BRANCH  14  15
ATOM     15  C   UNL d   1     -47.037  12.698  22.930  0.00  0.00     0.030 A 
ATOM     16  C   UNL d   1     -46.279  12.923  22.695  0.00  0.00     0.059 A 
ATOM     17 CL   UNL d   1     -46.168  13.574  22.202  0.00  0.00    -0.082 Cl
ATOM     18  C   UNL d   1     -45.628  12.493  22.958  0.00  0.00     0.011 A 
ATOM     19  C   UNL d   1     -45.736  11.837  23.456  0.00  0.00     0.001 A 
ATOM     20  C   UNL d   1     -46.498  11.618  23.686  0.00  0.00     0.000 A 
ATOM     21  C   UNL d   1     -47.148  12.049  23.423  0.00  0.00     0.002 A 
ENDBRANCH  14  15
ENDBRANCH  13  14
ENDBRANCH   3  13
BRANCH   1  22
ATOM     22  N   UNL d   1     -49.355  12.079  21.728  0.00  0.00    -0.107 N 
ATOM     23  O   UNL d   1     -49.574  11.445  22.207  0.00  0.00    -0.531 OA
ATOM     24  O   UNL d   1     -48.930  11.942  21.031  0.00  0.00    -0.531 OA
ENDBRANCH   1  22
TORSDOF 4
ENDMDL
MODEL 3
REMARK VINA RESULT:      -7.1      1.534      3.792
REMARK  4 active torsions:
REMARK  status: ('A' for Active; 'I' for Inactive)
REMARK    1  A    between atoms: N_5  and  C_1 
REMARK    2  A    between atoms: N_8  and  C_3 
REMARK    3  A    between atoms: C_13  and  N_8 
REMARK    4  A    between atoms: C_12  and  C_13 
ROOT
ATOM      1  C   UNL d   1     -48.896  14.735  22.329  0.00  0.00     0.200 A 
ATOM      2  C   UNL d   1     -49.698  14.923  22.309  0.00  0.00     0.288 A 
ATOM      3  C   UNL d   1     -48.628  13.990  22.067  0.00  0.00     0.109 A 
ATOM      4  N   UNL d   1     -50.242  14.364  22.026  0.00  0.00    -0.270 N 
ATOM      5  C   UNL d   1     -49.180  13.437  21.785  0.00  0.00     0.036 A 
ATOM      6  C   UNL d   1     -49.985  13.625  21.765  0.00  0.00     0.069 A 
ATOM      7  O   UNL d   1     -49.955  15.662  22.569  0.00  0.00    -0.265 OA
ATOM      8  C   UNL d   1     -51.044  14.552  22.006  0.00  0.00     0.102 C 
ATOM      9  C   UNL d   1     -48.923  12.697  21.525  0.00  0.00     0.003 A 
ATOM     10  C   UNL d   1     -50.529  13.073  21.485  0.00  0.00     0.018 A 
ATOM     11  C   UNL d   1     -49.470  12.146  21.244  0.00  0.00     0.000 A 
ATOM     12  C   UNL d   1     -50.272  12.334  21.225  0.00  0.00     0.002 A 
ENDROOT
BRANCH   3  13
ATOM     13  N   UNL d   1     -47.828  13.801  22.087  0.00  0.00    -0.242 NA
BRANCH  13  14
ATOM     14  C   UNL d   1     -47.532  13.314  22.683  0.00  0.00     0.100 C 
BRANCH  14  15
ATOM     15  C   UNL d   1     -46.744  13.075  22.667  0.00  0.00     0.030 A 
ATOM     16  C   UNL d   1     -46.490  12.477  23.176  0.00  0.00     0.059 A 
ATOM     17 CL   UNL d   1     -47.017  12.119  23.698  0.00  0.00    -0.082 Cl
ATOM     18  C   UNL d   1     -45.703  12.238  23.160  0.00  0.00     0.011 A 
ATOM     19  C   UNL d   1     -45.168  12.597  22.635  0.00  0.00     0.001 A 
ATOM     20  C   UNL d   1     -45.429  13.194  22.129  0.00  0.00     0.000 A 
ATOM     21  C   UNL d   1     -46.217  13.432  22.145  0.00  0.00     0.002 A 
ENDBRANCH  14  15
ENDBRANCH  13  14
ENDBRANCH   3  13
BRANCH   1  22
ATOM     22  N   UNL d   1     -48.345  15.288  22.610  0.00  0.00    -0.107 N 
ATOM     23  O   UNL d   1     -47.948  15.778  22.080  0.00  0.00    -0.531 OA
ATOM     24  O   UNL d   1     -48.193  15.349  23.422  0.00  0.00    -0.531 OA
ENDBRANCH   1  22
TORSDOF 4
ENDMDL
MODEL 4
REMARK VINA RESULT:      -6.0      8.264     10.035
REMARK  4 active torsions:
REMARK  status: ('A' for Active; 'I' for Inactive)
REMARK    1  A    between atoms: N_5  and  C_1 
REMARK    2  A    between atoms: N_8  and  C_3 
REMARK    3  A    between atoms: C_13  and  N_8 
REMARK    4  A    between atoms: C_12  and  C_13 
ROOT
ATOM      1  C   UNL d   1     -39.689  14.550  17.140  0.00  0.00     0.200 A 
ATOM      2  C   UNL d   1     -39.264  14.479  16.438  0.00  0.00     0.288 A 
ATOM      3  C   UNL d   1     -39.575  14.006  17.761  0.00  0.00     0.109 A 
ATOM      4  N   UNL d   1     -38.718  13.859  16.351  0.00  0.00    -0.270 N 
ATOM      5  C   UNL d   1     -39.027  13.389  17.666  0.00  0.00     0.036 A 
ATOM      6  C   UNL d   1     -38.600  13.317  16.962  0.00  0.00     0.069 A 
ATOM      7  O   UNL d   1     -39.381  15.021  15.828  0.00  0.00    -0.265 OA
ATOM      8  C   UNL d   1     -38.293  13.788  15.649  0.00  0.00     0.102 C 
ATOM      9  C   UNL d   1     -38.910  12.847  18.276  0.00  0.00     0.003 A 
ATOM     10  C   UNL d   1     -38.057  12.704  16.870  0.00  0.00     0.018 A 
ATOM     11  C   UNL d   1     -38.365  12.233  18.183  0.00  0.00     0.000 A 
ATOM     12  C   UNL d   1     -37.940  12.162  17.481  0.00  0.00     0.002 A 
ENDROOT
BRANCH   3  13
ATOM     13  N   UNL d   1     -40.000  14.076  18.463  0.00  0.00    -0.242 NA
BRANCH  13  14
ATOM     14  C   UNL d   1     -39.673  14.478  19.106  0.00  0.00     0.100 C 
BRANCH  14  15
ATOM     15  C   UNL d   1     -40.080  14.509  19.821  0.00  0.00     0.030 A 
ATOM     16  C   UNL d   1     -39.692  14.782  20.496  0.00  0.00     0.059 A 
ATOM     17 CL   UNL d   1     -38.905  15.024  20.460  0.00  0.00    -0.082 Cl
ATOM     18  C   UNL d   1     -40.097  14.814  21.212  0.00  0.00     0.011 A 
ATOM     19  C   UNL d   1     -40.891  14.571  21.253  0.00  0.00     0.001 A 
ATOM     20  C   UNL d   1     -41.272  14.299  20.574  0.00  0.00     0.000 A 
ATOM     21  C   UNL d   1     -40.865  14.268  19.858  0.00  0.00     0.002 A 
ENDBRANCH  14  15
ENDBRANCH  13  14
ENDBRANCH   3  13
BRANCH   1  22
ATOM     22  N   UNL d   1     -40.236  15.166  17.235  0.00  0.00    -0.107 N 
ATOM     23  O   UNL d   1     -41.039  15.025  17.112  0.00  0.00    -0.531 OA
ATOM     24  O   UNL d   1     -39.979  15.922  17.453  0.00  0.00    -0.531 OA
ENDBRANCH   1  22
TORSDOF 4
ENDMDL
MODEL 5
REMARK VINA RESULT:      -5.9      8.498     10.464
REMARK  4 active torsions:
REMARK  status: ('A' for Active; 'I' for Inactive)
REMARK    1  A    between atoms: N_5  and  C_1 
REMARK    2  A    between atoms: N_8  and  C_3 
REMARK    3  A    between atoms: C_13  and  N_8 
REMARK    4  A    between atoms: C_12  and  C_13 
ROOT
ATOM      1  C   UNL d   1     -40.410  14.721  18.885  0.00  0.00     0.200 A 
ATOM      2  C   UNL d   1     -40.693  14.747  19.658  0.00  0.00     0.288 A 
ATOM      3  C   UNL d   1     -39.647  15.001  18.702  0.00  0.00     0.109 A 
ATOM      4  N   UNL d   1     -40.210  15.056  20.260  0.00  0.00    -0.270 N 
ATOM      5  C   UNL d   1     -39.171  15.309  19.310  0.00  0.00     0.036 A 
ATOM      6  C   UNL d   1     -39.453  15.335  20.086  0.00  0.00     0.069 A 
ATOM      7  O   UNL d   1     -41.448  14.467  19.832  0.00  0.00    -0.265 OA
ATOM      8  C   UNL d   1     -40.492  15.082  21.033  0.00  0.00     0.102 C 
ATOM      9  C   UNL d   1     -38.415  15.588  19.136  0.00  0.00     0.003 A 
ATOM     10  C   UNL d   1     -38.979  15.641  20.686  0.00  0.00     0.018 A 
ATOM     11  C   UNL d   1     -37.940  15.894  19.739  0.00  0.00     0.000 A 
ATOM     12  C   UNL d   1     -38.222  15.920  20.513  0.00  0.00     0.002 A 
ENDROOT
BRANCH   3  13
ATOM     13  N   UNL d   1     -39.365  14.976  17.929  0.00  0.00    -0.242 NA
BRANCH  13  14
ATOM     14  C   UNL d   1     -38.828  14.391  17.704  0.00  0.00     0.100 C 
BRANCH  14  15
ATOM     15  C   UNL d   1     -38.548  14.365  16.930  0.00  0.00     0.030 A 
ATOM     16  C   UNL d   1     -38.222  13.665  16.640  0.00  0.00     0.059 A 
ATOM     17 CL   UNL d   1     -38.174  12.994  17.117  0.00  0.00    -0.082 Cl
ATOM     18  C   UNL d   1     -37.942  13.637  15.867  0.00  0.00     0.011 A 
ATOM     19  C   UNL d   1     -37.988  14.311  15.383  0.00  0.00     0.001 A 
ATOM     20  C   UNL d   1     -38.315  15.008  15.680  0.00  0.00     0.000 A 
ATOM     21  C   UNL d   1     -38.595  15.034  16.454  0.00  0.00     0.002 A 
ENDBRANCH  14  15
ENDBRANCH  13  14
ENDBRANCH   3  13
BRANCH   1  22
ATOM     22  N   UNL d   1     -40.886  14.413  18.278  0.00  0.00    -0.107 N 
ATOM     23  O   UNL d   1     -41.253  14.925  17.746  0.00  0.00    -0.531 OA
ATOM     24  O   UNL d   1     -40.993  13.596  18.206  0.00  0.00    -0.531 OA
ENDBRANCH   1  22
TORSDOF 4
ENDMDL
MODEL 6
REMARK VINA RESULT:      -5.7      1.761      2.436
REMARK  4 active torsions:
REMARK  status: ('A' for Active; 'I' for Inactive)
REMARK    1  A    between atoms: N_5  and  C_1 
REMARK    2  A    between atoms: N_8  and  C_3 
REMARK    3  A    between atoms: C_13  and  N_8 
REMARK    4  A    between atoms: C_12  and  C_13 
ROOT
ATOM      1  C   UNL d   1     -46.675  12.351  22.838  0.00  0.00     0.200 A 
ATOM      2  C   UNL d   1     -45.918  12.614  22.647  0.00  0.00     0.288 A 
ATOM      3  C   UNL d   1     -47.303  12.891  22.924  0.00  0.00     0.109 A 
ATOM      4  N   UNL d   1     -45.783  13.426  22.538  0.00  0.00    -0.270 N 
ATOM      5  C   UNL d   1     -47.159  13.702  22.813  0.00  0.00     0.036 A 
ATOM      6  C   UNL d   1     -46.401  13.967  22.620  0.00  0.00     0.069 A 
ATOM      7  O   UNL d   1     -45.302  12.073  22.564  0.00  0.00    -0.265 OA
ATOM      8  C   UNL d   1     -45.027  13.690  22.346  0.00  0.00     0.102 C 
ATOM      9  C   UNL d   1     -47.777  14.243  22.895  0.00  0.00     0.003 A 
ATOM     10  C   UNL d   1     -46.262  14.772  22.511  0.00  0.00     0.018 A 
ATOM     11  C   UNL d   1     -47.635  15.049  22.786  0.00  0.00     0.000 A 
ATOM     12  C   UNL d   1     -46.879  15.313  22.594  0.00  0.00     0.002 A 
ENDROOT
BRANCH   3  13
ATOM     13  N   UNL d   1     -48.060  12.629  23.115  0.00  0.00    -0.242 NA
BRANCH  13  14
ATOM     14  C   UNL d   1     -48.618  12.507  22.521  0.00  0.00     0.100 C 
BRANCH  14  15
ATOM     15  C   UNL d   1     -49.411  12.402  22.716  0.00  0.00     0.030 A 
ATOM     16  C   UNL d   1     -49.979  12.395  22.117  0.00  0.00     0.059 A 
ATOM     17 CL   UNL d   1     -49.760  12.493  21.329  0.00  0.00    -0.082 Cl
ATOM     18  C   UNL d   1     -50.772  12.290  22.311  0.00  0.00     0.011 A 
ATOM     19  C   UNL d   1     -50.998  12.192  23.105  0.00  0.00     0.001 A 
ATOM     20  C   UNL d   1     -50.424  12.200  23.698  0.00  0.00     0.000 A 
ATOM     21  C   UNL d   1     -49.631  12.304  23.503  0.00  0.00     0.002 A 
ENDBRANCH  14  15
ENDBRANCH  13  14
ENDBRANCH   3  13
BRANCH   1  22
ATOM     22  N   UNL d   1     -46.818  11.541  22.949  0.00  0.00    -0.107 N 
ATOM     23  O   UNL d   1     -47.013  11.257  23.698  0.00  0.00    -0.531 OA
ATOM     24  O   UNL d   1     -46.766  11.018  22.310  0.00  0.00    -0.531 OA
ENDBRANCH   1  22
TORSDOF 4
ENDMDL
