MODEL 1
REMARK VINA RESULT:      -9.2      0.000      0.000
REMARK  5 active torsions:
REMARK  status: ('A' for Active; 'I' for Inactive)
REMARK    1  A    between atoms: S_2  and  C_1 
REMARK    2  A    between atoms: C_8  and  S_2 
REMARK    3  A    between atoms: C_18  and  N_6 
REMARK    4  A    between atoms: O_22  and  C_16 
REMARK    5  A    between atoms: C_23  and  O_22 
ROOT
ATOM      1  C   UNL d   1      51.697  33.772  53.105  0.00  0.00     0.144 A 
ATOM      2  C   UNL d   1      51.915  32.984  53.037  0.00  0.00     0.209 A 
ATOM      3  C   UNL d   1      52.611  32.703  53.362  0.00  0.00     0.058 A 
ATOM      4  C   UNL d   1      52.201  34.301  53.516  0.00  0.00     0.095 A 
ATOM      5  N   UNL d   1      52.907  34.026  53.848  0.00  0.00    -0.303 N 
ATOM      6  C   UNL d   1      53.115  33.232  53.773  0.00  0.00     0.067 A 
ATOM      7  C   UNL d   1      53.818  32.959  54.104  0.00  0.00     0.020 A 
ATOM      8  C   UNL d   1      52.827  31.917  53.294  0.00  0.00     0.029 A 
ATOM      9  O   UNL d   1      51.420  32.463  52.632  0.00  0.00    -0.286 OA
ATOM     10  C   UNL d   1      53.528  31.630  53.620  0.00  0.00     0.100 A 
ATOM     11  C   UNL d   1      54.031  32.159  54.031  0.00  0.00     0.026 A 
ENDROOT
BRANCH   1  12
ATOM     12  S   UNL d   1      50.997  34.059  52.779  0.00  0.00     0.214 S 
ATOM     13  O   UNL d   1      51.394  34.304  52.100  0.00  0.00    -0.217 OA
ATOM     14  O   UNL d   1      50.589  33.814  53.464  0.00  0.00    -0.217 OA
BRANCH  12  15
ATOM     15  C   UNL d   1      50.287  34.343  52.462  0.00  0.00     0.088 A 
ATOM     16  C   UNL d   1      50.109  34.227  51.664  0.00  0.00     0.011 A 
ATOM     17  C   UNL d   1      49.404  34.509  51.347  0.00  0.00     0.001 A 
ATOM     18  C   UNL d   1      48.865  34.913  51.827  0.00  0.00     0.000 A 
ATOM     19  C   UNL d   1      49.040  35.031  52.626  0.00  0.00     0.001 A 
ATOM     20  C   UNL d   1      48.153  35.199  51.511  0.00  0.00     0.000 C 
ATOM     21  C   UNL d   1      49.745  34.749  52.943  0.00  0.00     0.011 A 
ENDBRANCH  12  15
ENDBRANCH   1  12
BRANCH   5  22
ATOM     22  C   UNL d   1      53.408  34.540  54.255  0.00  0.00     0.080 C 
ATOM     23  C   UNL d   1      53.133  35.285  54.474  0.00  0.00     0.021 C 
ENDBRANCH   5  22
BRANCH  10  24
ATOM     24  O   UNL d   1      53.743  30.845  53.551  0.00  0.00    -0.305 OA
BRANCH  24  25
ATOM     25  C   UNL d   1      53.389  30.261  54.008  0.00  0.00     0.123 C 
ATOM     26  C   UNL d   1      53.595  29.469  53.914  0.00  0.00     0.029 C 
ENDBRANCH  24  25
ENDBRANCH  10  24
TORSDOF 5
ENDMDL
MODEL 2
REMARK VINA RESULT:      -8.0      1.190      2.261
REMARK  5 active torsions:
REMARK  status: ('A' for Active; 'I' for Inactive)
REMARK    1  A    between atoms: S_2  and  C_1 
REMARK    2  A    between atoms: C_8  and  S_2 
REMARK    3  A    between atoms: C_18  and  N_6 
REMARK    4  A    between atoms: O_22  and  C_16 
REMARK    5  A    between atoms: C_23  and  O_22 
ROOT
ATOM      1  C   UNL d   1      51.779  33.398  53.081  0.00  0.00     0.144 A 
ATOM      2  C   UNL d   1      52.288  33.786  53.596  0.00  0.00     0.209 A 
ATOM      3  C   UNL d   1      52.952  33.418  53.898  0.00  0.00     0.058 A 
ATOM      4  C   UNL d   1      51.945  32.607  52.861  0.00  0.00     0.095 A 
ATOM      5  N   UNL d   1      52.615  32.227  53.162  0.00  0.00    -0.303 N 
ATOM      6  C   UNL d   1      53.118  32.626  53.678  0.00  0.00     0.067 A 
ATOM      7  C   UNL d   1      53.785  32.246  53.977  0.00  0.00     0.020 A 
ATOM      8  C   UNL d   1      53.457  33.805  54.411  0.00  0.00     0.029 A 
ATOM      9  O   UNL d   1      52.124  34.565  53.813  0.00  0.00    -0.286 OA
ATOM     10  C   UNL d   1      54.128  33.437  54.718  0.00  0.00     0.100 A 
ATOM     11  C   UNL d   1      54.295  32.646  54.498  0.00  0.00     0.026 A 
ENDROOT
BRANCH   1  12
ATOM     12  S   UNL d   1      51.108  33.766  52.774  0.00  0.00     0.214 S 
ATOM     13  O   UNL d   1      51.549  34.093  52.159  0.00  0.00    -0.217 OA
ATOM     14  O   UNL d   1      50.656  33.439  53.394  0.00  0.00    -0.217 OA
BRANCH  12  15
ATOM     15  C   UNL d   1      50.428  34.131  52.475  0.00  0.00     0.088 A 
ATOM     16  C   UNL d   1      49.914  34.534  52.979  0.00  0.00     0.011 A 
ATOM     17  C   UNL d   1      49.236  34.898  52.684  0.00  0.00     0.001 A 
ATOM     18  C   UNL d   1      49.065  34.861  51.876  0.00  0.00     0.000 A 
ATOM     19  C   UNL d   1      49.578  34.458  51.368  0.00  0.00     0.001 A 
ATOM     20  C   UNL d   1      48.383  35.226  51.574  0.00  0.00     0.000 C 
ATOM     21  C   UNL d   1      50.255  34.095  51.664  0.00  0.00     0.011 A 
ENDBRANCH  12  15
ENDBRANCH   1  12
BRANCH   5  22
ATOM     22  C   UNL d   1      52.787  31.448  52.951  0.00  0.00     0.080 C 
ATOM     23  C   UNL d   1      52.187  30.883  52.966  0.00  0.00     0.021 C 
ENDBRANCH   5  22
BRANCH  10  24
ATOM     24  O   UNL d   1      54.634  33.824  55.231  0.00  0.00    -0.305 OA
BRANCH  24  25
ATOM     25  C   UNL d   1      55.447  33.815  55.121  0.00  0.00     0.123 C 
ATOM     26  C   UNL d   1      55.916  34.438  55.386  0.00  0.00     0.029 C 
ENDBRANCH  24  25
ENDBRANCH  10  24
TORSDOF 5
ENDMDL
MODEL 3
REMARK VINA RESULT:      -7.7      1.101      4.633
REMARK  5 active torsions:
REMARK  status: ('A' for Active; 'I' for Inactive)
REMARK    1  A    between atoms: S_2  and  C_1 
REMARK    2  A    between atoms: C_8  and  S_2 
REMARK    3  A    between atoms: C_18  and  N_6 
REMARK    4  A    between atoms: O_22  and  C_16 
REMARK    5  A    between atoms: C_23  and  O_22 
ROOT
ATOM      1  C   UNL d   1      53.170  32.035  53.786  0.00  0.00     0.144 A 
ATOM      2  C   UNL d   1      52.521  32.322  53.374  0.00  0.00     0.209 A 
ATOM      3  C   UNL d   1      52.426  33.121  53.228  0.00  0.00     0.058 A 
ATOM      4  C   UNL d   1      53.749  32.574  54.062  0.00  0.00     0.095 A 
ATOM      5  N   UNL d   1      53.661  33.384  53.918  0.00  0.00    -0.303 N 
ATOM      6  C   UNL d   1      53.005  33.660  53.504  0.00  0.00     0.067 A 
ATOM      7  C   UNL d   1      52.919  34.467  53.362  0.00  0.00     0.020 A 
ATOM      8  C   UNL d   1      51.778  33.405  52.817  0.00  0.00     0.029 A 
ATOM      9  O   UNL d   1      51.951  31.791  53.102  0.00  0.00    -0.286 OA
ATOM     10  C   UNL d   1      51.679  34.209  52.668  0.00  0.00     0.100 A 
ATOM     11  C   UNL d   1      52.258  34.749  52.944  0.00  0.00     0.026 A 
ENDROOT
BRANCH   1  12
ATOM     12  S   UNL d   1      53.269  31.230  53.935  0.00  0.00     0.214 S 
ATOM     13  O   UNL d   1      53.580  31.112  53.181  0.00  0.00    -0.217 OA
ATOM     14  O   UNL d   1      52.956  31.343  54.700  0.00  0.00    -0.217 OA
BRANCH  12  15
ATOM     15  C   UNL d   1      53.364  30.424  54.096  0.00  0.00     0.088 A 
ATOM     16  C   UNL d   1      53.607  29.904  53.502  0.00  0.00     0.011 A 
ATOM     17  C   UNL d   1      53.701  29.102  53.661  0.00  0.00     0.001 A 
ATOM     18  C   UNL d   1      53.554  28.809  54.420  0.00  0.00     0.000 A 
ATOM     19  C   UNL d   1      53.311  29.326  55.017  0.00  0.00     0.001 A 
ATOM     20  C   UNL d   1      53.648  28.000  54.584  0.00  0.00     0.000 C 
ATOM     21  C   UNL d   1      53.216  30.128  54.858  0.00  0.00     0.011 A 
ENDBRANCH  12  15
ENDBRANCH   1  12
BRANCH   5  22
ATOM     22  C   UNL d   1      54.227  33.921  54.187  0.00  0.00     0.080 C 
ATOM     23  C   UNL d   1      54.763  33.689  54.768  0.00  0.00     0.021 C 
ENDBRANCH   5  22
BRANCH  10  24
ATOM     24  O   UNL d   1      51.032  34.494  52.258  0.00  0.00    -0.305 OA
BRANCH  24  25
ATOM     25  C   UNL d   1      50.282  34.506  52.593  0.00  0.00     0.123 C 
ATOM     26  C   UNL d   1      49.619  34.678  52.137  0.00  0.00     0.029 C 
ENDBRANCH  24  25
ENDBRANCH  10  24
TORSDOF 5
ENDMDL
