MODEL 1
REMARK VINA RESULT:       7.7      0.000      0.000
REMARK  2 active torsions:
REMARK  status: ('A' for Active; 'I' for Inactive)
REMARK    1  A    between atoms: C_4  and  C_1 
REMARK    2  A    between atoms: N_6  and  C_5 
ROOT
ATOM      1  C   UNL d   1      24.395  12.462  -2.317  0.00  0.00     0.024 A 
ATOM      2  C   UNL d   1      24.600  12.499  -3.956  0.00  0.00     0.064 A 
ATOM      3  C   UNL d   1      24.235  11.789  -2.773  0.00  0.00     0.004 A 
ATOM      4  C   UNL d   1      24.658  13.153  -2.683  0.00  0.00     0.004 A 
ATOM      5  C   UNL d   1      24.338  11.808  -3.589  0.00  0.00     0.018 A 
ATOM      6  C   UNL d   1      24.761  13.172  -3.506  0.00  0.00     0.018 A 
ENDROOT
BRANCH   1   7
ATOM      7  C   UNL d   1      24.294  12.447  -1.502  0.00  0.00     0.111 A 
ATOM      8  N   UNL d   1      23.812  12.929  -1.051  0.00  0.00    -0.237 NA
ATOM      9  C   UNL d   1      23.905  12.695  -0.265  0.00  0.00     0.106 A 
ATOM     10  C   UNL d   1      24.426  12.089  -0.238  0.00  0.00     0.058 A 
ATOM     11  S   UNL d   1      24.669  11.932  -0.998  0.00  0.00    -0.066 SA
ENDBRANCH   1   7
BRANCH   2  12
ATOM     12  N   UNL d   1      24.695  12.492  -4.776  0.00  0.00    -0.301 N 
ATOM     13  C   UNL d   1      24.741  13.206  -5.176  0.00  0.00     0.100 C 
ATOM     14  C   UNL d   1      24.742  11.782  -5.180  0.00  0.00     0.100 C 
ENDBRANCH   2  12
TORSDOF 2
ENDMDL
MODEL 2
REMARK VINA RESULT:       8.3     10.506     11.239
REMARK  2 active torsions:
REMARK  status: ('A' for Active; 'I' for Inactive)
REMARK    1  A    between atoms: C_4  and  C_1 
REMARK    2  A    between atoms: N_6  and  C_5 
ROOT
ATOM      1  C   UNL d   1      13.659  12.059  -3.031  0.00  0.00     0.024 A 
ATOM      2  C   UNL d   1      14.048  12.040  -1.425  0.00  0.00     0.064 A 
ATOM      3  C   UNL d   1      14.405  12.316  -2.779  0.00  0.00     0.004 A 
ATOM      4  C   UNL d   1      13.109  11.792  -2.478  0.00  0.00     0.004 A 
ATOM      5  C   UNL d   1      14.599  12.307  -1.979  0.00  0.00     0.018 A 
ATOM      6  C   UNL d   1      13.304  11.783  -1.672  0.00  0.00     0.018 A 
ENDROOT
BRANCH   1   7
ATOM      7  C   UNL d   1      13.464  12.067  -3.829  0.00  0.00     0.111 A 
ATOM      8  N   UNL d   1      13.912  12.354  -4.449  0.00  0.00    -0.237 NA
ATOM      9  C   UNL d   1      13.474  12.235  -5.138  0.00  0.00     0.106 A 
ATOM     10  C   UNL d   1      12.781  11.887  -4.945  0.00  0.00     0.058 A 
ATOM     11  S   UNL d   1      12.770  11.781  -4.138  0.00  0.00    -0.066 SA
ENDBRANCH   1   7
BRANCH   2  12
ATOM     12  N   UNL d   1      14.266  12.040  -0.629  0.00  0.00    -0.301 N 
ATOM     13  C   UNL d   1      13.714  11.815  -0.067  0.00  0.00     0.100 C 
ATOM     14  C   UNL d   1      15.022  12.263  -0.409  0.00  0.00     0.100 C 
ENDBRANCH   2  12
TORSDOF 2
ENDMDL
MODEL 3
REMARK VINA RESULT:       9.3     10.271     10.542
REMARK  2 active torsions:
REMARK  status: ('A' for Active; 'I' for Inactive)
REMARK    1  A    between atoms: C_4  and  C_1 
REMARK    2  A    between atoms: N_6  and  C_5 
ROOT
ATOM      1  C   UNL d   1      14.122  12.456  -1.997  0.00  0.00     0.024 A 
ATOM      2  C   UNL d   1      13.452  12.492  -3.506  0.00  0.00     0.064 A 
ATOM      3  C   UNL d   1      13.762  11.779  -2.310  0.00  0.00     0.004 A 
ATOM      4  C   UNL d   1      14.147  13.150  -2.441  0.00  0.00     0.004 A 
ATOM      5  C   UNL d   1      13.428  11.797  -3.061  0.00  0.00     0.018 A 
ATOM      6  C   UNL d   1      13.810  13.168  -3.199  0.00  0.00     0.018 A 
ENDROOT
BRANCH   1   7
ATOM      7  C   UNL d   1      14.456  12.441  -1.247  0.00  0.00     0.111 A 
ATOM      8  N   UNL d   1      14.963  12.991  -0.916  0.00  0.00    -0.237 NA
ATOM      9  C   UNL d   1      15.141  12.727  -0.154  0.00  0.00     0.106 A 
ATOM     10  C   UNL d   1      14.756  12.039  -0.025  0.00  0.00     0.058 A 
ATOM     11  S   UNL d   1      14.332  11.858  -0.696  0.00  0.00    -0.066 SA
ENDBRANCH   1   7
BRANCH   2  12
ATOM     12  N   UNL d   1      13.110  12.484  -4.258  0.00  0.00    -0.301 N 
ATOM     13  C   UNL d   1      13.071  13.184  -4.683  0.00  0.00     0.100 C 
ATOM     14  C   UNL d   1      12.816  11.788  -4.570  0.00  0.00     0.100 C 
ENDBRANCH   2  12
TORSDOF 2
ENDMDL
