MODEL 1
REMARK VINA RESULT:       0.4      0.000      0.000
REMARK  3 active torsions:
REMARK  status: ('A' for Active; 'I' for Inactive)
REMARK    1  A    between atoms: N_10  and  C_3 
REMARK    2  A    between atoms: C_11  and  C_5 
REMARK    3  A    between atoms: C_13  and  N_10 
ROOT
ATOM      1  N   UNL d   1      58.024  -0.064  30.877  0.00  0.00    -0.184 N 
ATOM      2  C   UNL d   1      58.757  -0.000  30.473  0.00  0.00     0.168 A 
ATOM      3  C   UNL d   1      57.989   0.096  31.688  0.00  0.00     0.217 A 
ATOM      4  N   UNL d   1      57.389  -0.442  29.665  0.00  0.00    -0.162 NA
ATOM      5  C   UNL d   1      58.792  -0.156  29.682  0.00  0.00     0.055 A 
ATOM      6  N   UNL d   1      59.428   0.221  30.894  0.00  0.00    -0.227 NA
ATOM      7  C   UNL d   1      58.660   0.313  32.089  0.00  0.00     0.066 A 
ATOM      8  C   UNL d   1      58.110  -0.379  29.268  0.00  0.00     0.104 A 
ATOM      9  C   UNL d   1      59.396   0.380  31.693  0.00  0.00     0.087 A 
ATOM     10  C   UNL d   1      58.796   0.501  32.867  0.00  0.00     0.006 A 
ATOM     11  C   UNL d   1      58.155  -0.535  28.466  0.00  0.00     0.023 C 
ATOM     12  C   UNL d   1      59.967   0.606  32.236  0.00  0.00     0.019 A 
ATOM     13  C   UNL d   1      59.587   0.681  32.970  0.00  0.00     0.002 A 
ENDROOT
BRANCH   3  14
ATOM     14  N   UNL d   1      57.251   0.032  32.099  0.00  0.00    -0.383 NA
BRANCH  14  15
ATOM     15  C   UNL d   1      56.518  -0.029  32.512  0.00  0.00     0.134 A 
ATOM     16  C   UNL d   1      56.206  -0.793  32.690  0.00  0.00     0.032 A 
ATOM     17  C   UNL d   1      55.477  -0.861  33.100  0.00  0.00     0.003 A 
ATOM     18  C   UNL d   1      55.049  -0.164  33.338  0.00  0.00     0.000 A 
ATOM     19  C   UNL d   1      55.372   0.592  33.153  0.00  0.00     0.003 A 
ATOM     20  C   UNL d   1      56.105   0.662  32.741  0.00  0.00     0.032 A 
ENDBRANCH  14  15
ENDBRANCH   3  14
BRANCH   5  21
ATOM     21  C   UNL d   1      59.509  -0.093  29.286  0.00  0.00     0.004 A 
ATOM     22  C   UNL d   1      60.010  -0.742  29.235  0.00  0.00     0.000 A 
ATOM     23  C   UNL d   1      60.725  -0.683  28.842  0.00  0.00     0.000 A 
ATOM     24  C   UNL d   1      60.944   0.032  28.495  0.00  0.00     0.000 A 
ATOM     25  C   UNL d   1      60.455   0.677  28.541  0.00  0.00     0.000 A 
ATOM     26  C   UNL d   1      59.730   0.613  28.941  0.00  0.00     0.000 A 
ENDBRANCH   5  21
TORSDOF 3
ENDMDL
