MODEL 1
REMARK VINA RESULT:      31.0      0.000      0.000
REMARK  3 active torsions:
REMARK  status: ('A' for Active; 'I' for Inactive)
REMARK    1  A    between atoms: C_4  and  C_1 
REMARK       I    between atoms: N_7  and  C_4 
REMARK    2  A    between atoms: C_14  and  N_7 
REMARK    3  A    between atoms: C_9  and  C_10 
ROOT
ATOM      1  C   UNL d   1      13.873  13.194  -3.424  0.00  0.00     0.281 C 
ATOM      2  N   UNL d   1      14.165  12.846  -2.748  0.00  0.00    -0.208 NA
ATOM      3  O   UNL d   1      13.880  14.015  -3.509  0.00  0.00    -0.265 OA
ENDROOT
BRANCH   2   4
ATOM      4  C   UNL d   1      14.467  13.316  -2.149  0.00  0.00     0.085 A 
ATOM      5  C   UNL d   1      14.337  14.149  -2.182  0.00  0.00     0.019 A 
ATOM      6  C   UNL d   1      14.632  14.634  -1.593  0.00  0.00     0.005 A 
ATOM      7  C   UNL d   1      15.055  14.318  -0.964  0.00  0.00     0.039 A 
ATOM      8  C   UNL d   1      15.180  13.495  -0.938  0.00  0.00     0.005 A 
ATOM      9  C   UNL d   1      14.887  13.007  -1.525  0.00  0.00     0.019 A 
BRANCH   7  10
ATOM     10  C   UNL d   1      15.360  14.818  -0.355  0.00  0.00     0.196 C 
ATOM     11  O   UNL d   1      14.940  15.457  -0.091  0.00  0.00    -0.287 OA
ATOM     12  C   UNL d   1      16.112  14.654  -0.015  0.00  0.00     0.045 C 
ENDBRANCH   7  10
ENDBRANCH   2   4
BRANCH   1  13
ATOM     13  C   UNL d   1      13.561  12.740  -4.047  0.00  0.00     0.076 A 
ATOM     14  C   UNL d   1      13.067  12.105  -3.994  0.00  0.00     0.092 A 
ATOM     15  S   UNL d   1      12.887  11.811  -4.760  0.00  0.00    -0.064 SA
ATOM     16 CL   UNL d   1      12.769  11.780  -3.263  0.00  0.00    -0.075 Cl
ATOM     17  C   UNL d   1      13.268  12.262  -5.272  0.00  0.00     0.088 A 
ATOM     18  C   UNL d   1      13.696  12.850  -4.852  0.00  0.00     0.024 A 
ATOM     19 CL   UNL d   1      13.247  12.168  -6.113  0.00  0.00    -0.075 Cl
ENDBRANCH   1  13
TORSDOF 3
ENDMDL
