MODEL 1
REMARK VINA RESULT:      -6.3      0.000      0.000
REMARK  2 active torsions:
REMARK  status: ('A' for Active; 'I' for Inactive)
REMARK    1  A    between atoms: C_6  and  C_1 
REMARK    2  A    between atoms: C_8  and  N_3 
REMARK       I    between atoms: N_7  and  C_6 
ROOT
ATOM      1  C   UNL d   1     -48.507  13.718  22.938  0.00  0.00     0.124 A 
ATOM      2  C   UNL d   1     -47.758  13.895  22.602  0.00  0.00     0.181 A 
ATOM      3  N   UNL d   1     -47.260  13.233  22.738  0.00  0.00    -0.276 N 
ATOM      4  C   UNL d   1     -47.690  12.661  23.148  0.00  0.00     0.152 A 
ATOM      5  S   UNL d   1     -48.467  12.949  23.280  0.00  0.00    -0.051 SA
ATOM      6  S   UNL d   1     -47.410  11.931  23.389  0.00  0.00    -0.052 SA
ATOM      7  N   UNL d   1     -47.638  14.617  22.228  0.00  0.00    -0.128 N 
ENDROOT
BRANCH   1   8
ATOM      8  C   UNL d   1     -49.127  14.255  22.902  0.00  0.00     0.274 C 
ATOM      9  N   UNL d   1     -49.766  14.105  22.406  0.00  0.00    -0.267 N 
ATOM     10  C   UNL d   1     -49.792  13.409  21.937  0.00  0.00     0.110 A 
ATOM     11  C   UNL d   1     -50.404  14.647  22.362  0.00  0.00     0.110 A 
ATOM     12  C   UNL d   1     -50.445  13.266  21.438  0.00  0.00     0.142 A 
ATOM     13  O   UNL d   1     -51.064  13.809  21.406  0.00  0.00    -0.300 OA
ATOM     14  C   UNL d   1     -51.042  14.496  21.867  0.00  0.00     0.142 A 
ATOM     15  O   UNL d   1     -49.111  14.936  23.355  0.00  0.00    -0.266 OA
ENDBRANCH   1   8
BRANCH   3  16
ATOM     16  C   UNL d   1     -46.463  13.176  22.493  0.00  0.00     0.067 A 
ATOM     17  C   UNL d   1     -45.864  13.453  22.976  0.00  0.00     0.018 A 
ATOM     18  C   UNL d   1     -45.067  13.392  22.720  0.00  0.00     0.002 A 
ATOM     19  C   UNL d   1     -44.895  13.058  21.997  0.00  0.00     0.000 A 
ATOM     20  C   UNL d   1     -45.507  12.778  21.511  0.00  0.00     0.002 A 
ATOM     21  C   UNL d   1     -44.110  12.999  21.749  0.00  0.00     0.000 C 
ATOM     22  C   UNL d   1     -46.291  12.835  21.755  0.00  0.00     0.018 A 
ENDBRANCH   3  16
TORSDOF 2
ENDMDL
MODEL 2
REMARK VINA RESULT:      -6.2      8.615      9.267
REMARK  2 active torsions:
REMARK  status: ('A' for Active; 'I' for Inactive)
REMARK    1  A    between atoms: C_6  and  C_1 
REMARK    2  A    between atoms: C_8  and  N_3 
REMARK       I    between atoms: N_7  and  C_6 
ROOT
ATOM      1  C   UNL d   1     -39.853  14.331  18.986  0.00  0.00     0.124 A 
ATOM      2  C   UNL d   1     -39.954  14.525  19.796  0.00  0.00     0.181 A 
ATOM      3  N   UNL d   1     -39.237  14.341  20.190  0.00  0.00    -0.276 N 
ATOM      4  C   UNL d   1     -38.704  14.039  19.638  0.00  0.00     0.152 A 
ATOM      5  S   UNL d   1     -39.073  14.027  18.885  0.00  0.00    -0.051 SA
ATOM      6  S   UNL d   1     -37.940  13.792  19.793  0.00  0.00    -0.052 SA
ATOM      7  N   UNL d   1     -40.671  14.836  20.055  0.00  0.00    -0.128 N 
ENDROOT
BRANCH   1   8
ATOM      8  C   UNL d   1     -40.457  14.444  18.442  0.00  0.00     0.274 C 
ATOM      9  N   UNL d   1     -40.332  14.933  17.793  0.00  0.00    -0.267 N 
ATOM     10  C   UNL d   1     -39.594  15.318  17.679  0.00  0.00     0.110 A 
ATOM     11  C   UNL d   1     -40.942  15.056  17.232  0.00  0.00     0.110 A 
ATOM     12  C   UNL d   1     -39.478  15.812  17.017  0.00  0.00     0.142 A 
ATOM     13  O   UNL d   1     -40.088  15.922  16.474  0.00  0.00    -0.300 OA
ATOM     14  C   UNL d   1     -40.817  15.545  16.582  0.00  0.00     0.142 A 
ATOM     15  O   UNL d   1     -41.180  14.074  18.543  0.00  0.00    -0.266 OA
ENDBRANCH   1   8
BRANCH   3  16
ATOM     16  C   UNL d   1     -39.099  14.450  21.007  0.00  0.00     0.067 A 
ATOM     17  C   UNL d   1     -39.220  13.833  21.531  0.00  0.00     0.018 A 
ATOM     18  C   UNL d   1     -39.079  13.952  22.349  0.00  0.00     0.002 A 
ATOM     19  C   UNL d   1     -38.822  14.679  22.617  0.00  0.00     0.000 A 
ATOM     20  C   UNL d   1     -38.701  15.301  22.081  0.00  0.00     0.002 A 
ATOM     21  C   UNL d   1     -38.684  14.792  23.423  0.00  0.00     0.000 C 
ATOM     22  C   UNL d   1     -38.837  15.191  21.277  0.00  0.00     0.018 A 
ENDBRANCH   3  16
TORSDOF 2
ENDMDL
MODEL 3
REMARK VINA RESULT:      -6.0      8.869      9.660
REMARK  2 active torsions:
REMARK  status: ('A' for Active; 'I' for Inactive)
REMARK    1  A    between atoms: C_6  and  C_1 
REMARK    2  A    between atoms: C_8  and  N_3 
REMARK       I    between atoms: N_7  and  C_6 
ROOT
ATOM      1  C   UNL d   1     -38.976  14.840  20.837  0.00  0.00     0.124 A 
ATOM      2  C   UNL d   1     -39.632  14.931  20.321  0.00  0.00     0.181 A 
ATOM      3  N   UNL d   1     -39.330  14.991  19.540  0.00  0.00    -0.276 N 
ATOM      4  C   UNL d   1     -38.508  14.939  19.572  0.00  0.00     0.152 A 
ATOM      5  S   UNL d   1     -38.273  14.845  20.372  0.00  0.00    -0.051 SA
ATOM      6  S   UNL d   1     -38.000  14.973  18.932  0.00  0.00    -0.052 SA
ATOM      7  N   UNL d   1     -40.395  14.945  20.629  0.00  0.00    -0.128 N 
ENDROOT
BRANCH   1   8
ATOM      8  C   UNL d   1     -39.079  14.765  21.648  0.00  0.00     0.274 C 
ATOM      9  N   UNL d   1     -38.756  14.118  22.040  0.00  0.00    -0.267 N 
ATOM     10  C   UNL d   1     -38.322  13.534  21.622  0.00  0.00     0.110 A 
ATOM     11  C   UNL d   1     -38.856  14.032  22.868  0.00  0.00     0.110 A 
ATOM     12  C   UNL d   1     -37.998  12.881  22.029  0.00  0.00     0.142 A 
ATOM     13  O   UNL d   1     -38.106  12.812  22.844  0.00  0.00    -0.300 OA
ATOM     14  C   UNL d   1     -38.533  13.386  23.260  0.00  0.00     0.142 A 
ATOM     15  O   UNL d   1     -39.501  15.328  22.065  0.00  0.00    -0.266 OA
ENDBRANCH   1   8
BRANCH   3  16
ATOM     16  C   UNL d   1     -39.797  15.088  18.854  0.00  0.00     0.067 A 
ATOM     17  C   UNL d   1     -40.033  15.835  18.618  0.00  0.00     0.018 A 
ATOM     18  C   UNL d   1     -40.501  15.922  17.928  0.00  0.00     0.002 A 
ATOM     19  C   UNL d   1     -40.719  15.265  17.497  0.00  0.00     0.000 A 
ATOM     20  C   UNL d   1     -40.477  14.508  17.741  0.00  0.00     0.002 A 
ATOM     21  C   UNL d   1     -41.180  15.354  16.819  0.00  0.00     0.000 C 
ATOM     22  C   UNL d   1     -40.017  14.416  18.417  0.00  0.00     0.018 A 
ENDBRANCH   3  16
TORSDOF 2
ENDMDL
MODEL 4
REMARK VINA RESULT:      -5.6      8.004      9.981
REMARK  2 active torsions:
REMARK  status: ('A' for Active; 'I' for Inactive)
REMARK    1  A    between atoms: C_6  and  C_1 
REMARK    2  A    between atoms: C_8  and  N_3 
REMARK       I    between atoms: N_7  and  C_6 
ROOT
ATOM      1  C   UNL d   1     -39.423  15.414  18.860  0.00  0.00     0.124 A 
ATOM      2  C   UNL d   1     -38.894  15.040  18.327  0.00  0.00     0.181 A 
ATOM      3  N   UNL d   1     -39.266  15.023  17.575  0.00  0.00    -0.276 N 
ATOM      4  C   UNL d   1     -40.008  15.377  17.641  0.00  0.00     0.152 A 
ATOM      5  S   UNL d   1     -40.120  15.625  18.435  0.00  0.00    -0.051 SA
ATOM      6  S   UNL d   1     -40.550  15.473  17.036  0.00  0.00    -0.052 SA
ATOM      7  N   UNL d   1     -38.163  14.774  18.595  0.00  0.00    -0.128 N 
ENDROOT
BRANCH   1   8
ATOM      8  C   UNL d   1     -39.227  15.521  19.650  0.00  0.00     0.274 C 
ATOM      9  N   UNL d   1     -39.722  15.223  20.235  0.00  0.00    -0.267 N 
ATOM     10  C   UNL d   1     -40.426  14.811  20.036  0.00  0.00     0.110 A 
ATOM     11  C   UNL d   1     -39.530  15.327  21.045  0.00  0.00     0.110 A 
ATOM     12  C   UNL d   1     -40.921  14.513  20.638  0.00  0.00     0.142 A 
ATOM     13  O   UNL d   1     -40.718  14.625  21.429  0.00  0.00    -0.300 OA
ATOM     14  C   UNL d   1     -40.025  15.030  21.630  0.00  0.00     0.142 A 
ATOM     15  O   UNL d   1     -38.543  15.921  19.856  0.00  0.00    -0.266 OA
ENDBRANCH   1   8
BRANCH   3  16
ATOM     16  C   UNL d   1     -38.930  14.697  16.882  0.00  0.00     0.067 A 
ATOM     17  C   UNL d   1     -38.554  15.182  16.340  0.00  0.00     0.018 A 
ATOM     18  C   UNL d   1     -38.220  14.846  15.648  0.00  0.00     0.002 A 
ATOM     19  C   UNL d   1     -38.270  14.043  15.520  0.00  0.00     0.000 A 
ATOM     20  C   UNL d   1     -38.652  13.555  16.073  0.00  0.00     0.002 A 
ATOM     21  C   UNL d   1     -37.940  13.716  14.838  0.00  0.00     0.000 C 
ATOM     22  C   UNL d   1     -38.982  13.878  16.754  0.00  0.00     0.018 A 
ENDBRANCH   3  16
TORSDOF 2
ENDMDL
