MODEL 1
REMARK VINA RESULT:      61.3      0.000      0.000
REMARK  7 active torsions:
REMARK  status: ('A' for Active; 'I' for Inactive)
REMARK    1  A    between atoms: C_7  and  C_1 
REMARK    2  A    between atoms: N_5  and  C_2 
REMARK       I    between atoms: C_8  and  N_5 
REMARK    3  A    between atoms: N_9  and  C_7 
REMARK    4  A    between atoms: C_11  and  C_7 
REMARK    5  A    between atoms: C_16  and  C_8 
REMARK    6  A    between atoms: C_21  and  N_10 
REMARK    7  A    between atoms: C_27  and  C_21 
ROOT
ATOM      1  C   UNL d   1      45.447 -17.778  42.694  0.00  0.00     0.042 A 
ATOM      2  C   UNL d   1      45.585 -18.489  42.291  0.00  0.00     0.115 A 
ATOM      3  C   UNL d   1      45.145 -17.245  42.166  0.00  0.00     0.009 A 
ATOM      4  S   UNL d   1      45.365 -18.384  41.520  0.00  0.00    -0.068 SA
ATOM      5  C   UNL d   1      45.089 -17.599  41.445  0.00  0.00     0.031 A 
ATOM      6  C   UNL d   1      44.913 -16.423  42.331  0.00  0.00     0.001 C 
ATOM      7  C   UNL d   1      44.812 -17.262  40.754  0.00  0.00     0.007 C 
ENDROOT
BRANCH   1   8
ATOM      8  C   UNL d   1      45.614 -17.706  43.494  0.00  0.00     0.084 C 
BRANCH   8   9
ATOM      9  N   UNL d   1      45.705 -16.950  43.801  0.00  0.00    -0.300 N 
ATOM     10  C   UNL d   1      46.362 -16.485  43.605  0.00  0.00     0.100 A 
ATOM     11  C   UNL d   1      46.426 -15.733  43.928  0.00  0.00     0.100 A 
ATOM     12  N   UNL d   1      45.867 -15.436  44.429  0.00  0.00    -0.297 N 
ATOM     13  C   UNL d   1      45.210 -15.901  44.626  0.00  0.00     0.100 A 
ATOM     14  C   UNL d   1      45.119 -16.657  44.318  0.00  0.00     0.100 A 
BRANCH  12  15
ATOM     15  C   UNL d   1      45.947 -14.663  44.752  0.00  0.00     0.126 C 
BRANCH  15  16
ATOM     16  C   UNL d   1      45.551 -14.018  44.418  0.00  0.00     0.253 C 
ATOM     17  O   UNL d   1      45.943 -13.310  44.305  0.00  0.00    -0.281 OA
ENDBRANCH  15  16
ENDBRANCH  12  15
ENDBRANCH   8   9
BRANCH   8  18
ATOM     18  C   UNL d   1      45.690 -18.374  43.976  0.00  0.00     0.098 A 
ATOM     19  N   UNL d   1      45.114 -18.946  43.968  0.00  0.00    -0.243 NA
ATOM     20  C   UNL d   1      45.216 -19.602  44.459  0.00  0.00     0.099 A 
ATOM     21  C   UNL d   1      45.839 -19.687  44.924  0.00  0.00     0.021 A 
ATOM     22  C   UNL d   1      46.432 -19.115  44.943  0.00  0.00     0.003 A 
ATOM     23  C   UNL d   1      46.357 -18.449  44.462  0.00  0.00     0.021 A 
ENDBRANCH   8  18
ENDBRANCH   1   8
BRANCH   2  24
ATOM     24  N   UNL d   1      45.888 -19.119  42.693  0.00  0.00    -0.201 NA
ATOM     25  C   UNL d   1      46.315 -19.685  42.263  0.00  0.00     0.280 C 
ATOM     26  O   UNL d   1      46.631 -20.328  42.644  0.00  0.00    -0.265 OA
BRANCH  25  27
ATOM     27  C   UNL d   1      46.421 -19.596  41.445  0.00  0.00     0.058 A 
ATOM     28  C   UNL d   1      46.526 -18.851  41.120  0.00  0.00     0.005 A 
ATOM     29  C   UNL d   1      46.633 -18.758  40.294  0.00  0.00     0.000 A 
ATOM     30  C   UNL d   1      46.632 -19.421  39.807  0.00  0.00     0.000 A 
ATOM     31  C   UNL d   1      46.526 -20.167  40.144  0.00  0.00     0.000 A 
ATOM     32  C   UNL d   1      46.420 -20.264  40.957  0.00  0.00     0.005 A 
ENDBRANCH  25  27
ENDBRANCH   2  24
TORSDOF 7
ENDMDL
