MODEL 1
REMARK VINA RESULT:      32.6      0.000      0.000
REMARK  5 active torsions:
REMARK  status: ('A' for Active; 'I' for Inactive)
REMARK    1  A    between atoms: C_6  and  C_1 
REMARK    2  A    between atoms: C_7  and  C_5 
REMARK       I    between atoms: N_13  and  C_6 
REMARK    3  A    between atoms: C_8  and  C_12 
REMARK    4  A    between atoms: N_9  and  N_13 
REMARK    5  A    between atoms: C_12  and  N_9 
ROOT
ATOM      1  C   UNL d   1      45.467 -17.840  40.117  0.00  0.00     0.164 A 
ATOM      2  C   UNL d   1      44.985 -18.074  40.748  0.00  0.00     0.047 A 
ATOM      3  N   UNL d   1      46.589 -18.441  40.756  0.00  0.00    -0.148 NA
ATOM      4  N   UNL d   1      46.268 -18.021  40.118  0.00  0.00    -0.143 NA
ATOM      5  C   UNL d   1      46.106 -18.675  41.387  0.00  0.00     0.105 A 
ENDROOT
BRANCH   1   6
ATOM      6  C   UNL d   1      45.138 -17.421  39.485  0.00  0.00     0.316 C 
ATOM      7  N   UNL d   1      45.654 -17.007  38.767  0.00  0.00    -0.104 NA
ATOM      8  O   UNL d   1      44.315 -17.338  39.441  0.00  0.00    -0.262 OA
BRANCH   7   9
ATOM      9  N   UNL d   1      45.375 -16.478  37.952  0.00  0.00    -0.143 NA
BRANCH   9  10
ATOM     10  C   UNL d   1      45.969 -16.108  37.443  0.00  0.00     0.129 C 
BRANCH  10  11
ATOM     11  C   UNL d   1      45.950 -15.249  37.304  0.00  0.00     0.050 A 
ATOM     12  S   UNL d   1      46.430 -14.935  36.808  0.00  0.00    -0.085 SA
ATOM     13  C   UNL d   1      46.414 -14.184  36.687  0.00  0.00     0.035 A 
ATOM     14  C   UNL d   1      45.917 -13.747  37.061  0.00  0.00     0.007 A 
ATOM     15  C   UNL d   1      45.453 -14.812  37.678  0.00  0.00     0.009 A 
ENDBRANCH  10  11
ENDBRANCH   9  10
ENDBRANCH   7   9
ENDBRANCH   1   6
BRANCH   5  16
ATOM     16  C   UNL d   1      46.224 -19.085  42.092  0.00  0.00     0.019 A 
ATOM     17  C   UNL d   1      46.285 -18.668  42.800  0.00  0.00     0.002 A 
ATOM     18  C   UNL d   1      46.404 -19.077  43.511  0.00  0.00     0.000 A 
ATOM     19  C   UNL d   1      46.466 -18.664  44.220  0.00  0.00     0.000 A 
ATOM     20  C   UNL d   1      46.461 -19.907  43.504  0.00  0.00     0.000 A 
ATOM     21  C   UNL d   1      46.583 -19.070  44.924  0.00  0.00     0.000 A 
ATOM     22  C   UNL d   1      46.641 -19.898  44.926  0.00  0.00     0.000 A 
ATOM     23  C   UNL d   1      46.580 -20.315  44.218  0.00  0.00     0.000 A 
ATOM     24  C   UNL d   1      46.399 -20.310  42.797  0.00  0.00     0.000 A 
ATOM     25  C   UNL d   1      46.280 -19.898  42.091  0.00  0.00     0.002 A 
ENDBRANCH   5  16
TORSDOF 5
ENDMDL
