MODEL 1
REMARK VINA RESULT:      -1.1      0.000      0.000
REMARK  3 active torsions:
REMARK  status: ('A' for Active; 'I' for Inactive)
REMARK    1  A    between atoms: C_8  and  N_2 
REMARK    2  A    between atoms: C_6  and  C_3 
REMARK    3  A    between atoms: C_7  and  C_4 
ROOT
ATOM      1  N   UNL d   1     -41.399-122.347 -49.897  0.00  0.00    -0.159 NA
ATOM      2  N   UNL d   1     -41.964-122.697 -49.396  0.00  0.00    -0.234 N 
ATOM      3  C   UNL d   1     -41.759-122.177 -50.600  0.00  0.00     0.167 A 
ATOM      4  C   UNL d   1     -42.667-122.736 -49.803  0.00  0.00     0.062 A 
ATOM      5  C   UNL d   1     -42.549-122.415 -50.553  0.00  0.00     0.042 A 
ENDROOT
BRANCH   2   6
ATOM      6  C   UNL d   1     -41.794-122.944 -48.628  0.00  0.00     0.083 A 
ATOM      7  C   UNL d   1     -41.291-123.576 -48.497  0.00  0.00     0.019 A 
ATOM      8  C   UNL d   1     -41.127-123.817 -47.733  0.00  0.00     0.002 A 
ATOM      9  C   UNL d   1     -41.461-123.430 -47.099  0.00  0.00     0.000 A 
ATOM     10  C   UNL d   1     -41.964-122.798 -47.230  0.00  0.00     0.002 A 
ATOM     11  C   UNL d   1     -42.133-122.551 -47.998  0.00  0.00     0.019 A 
ENDBRANCH   2   6
BRANCH   4  12
ATOM     12  C   UNL d   1     -43.389-123.046 -49.521  0.00  0.00     0.036 C 
ATOM     13  C   UNL d   1     -44.110-123.354 -49.240  0.00  0.00     0.006 C 
ATOM     14  C   UNL d   1     -43.647-122.274 -49.339  0.00  0.00     0.006 C 
ATOM     15  C   UNL d   1     -43.126-123.815 -49.705  0.00  0.00     0.006 C 
ENDBRANCH   4  12
BRANCH   3  16
ATOM     16  C   UNL d   1     -41.398-121.824 -51.257  0.00  0.00     0.231 C 
ATOM     17  O   UNL d   1     -41.123-121.048 -51.210  0.00  0.00    -0.643 OA
ATOM     18  O   UNL d   1     -41.318-122.254 -51.953  0.00  0.00    -0.643 OA
ENDBRANCH   3  16
TORSDOF 3
ENDMDL
MODEL 2
REMARK VINA RESULT:      -0.7      1.719      2.581
REMARK  3 active torsions:
REMARK  status: ('A' for Active; 'I' for Inactive)
REMARK    1  A    between atoms: C_8  and  N_2 
REMARK    2  A    between atoms: C_6  and  C_3 
REMARK    3  A    between atoms: C_7  and  C_4 
ROOT
ATOM      1  N   UNL d   1     -41.696-123.402 -52.109  0.00  0.00    -0.159 NA
ATOM      2  N   UNL d   1     -41.789-122.920 -51.436  0.00  0.00    -0.234 N 
ATOM      3  C   UNL d   1     -41.703-122.925 -52.761  0.00  0.00     0.167 A 
ATOM      4  C   UNL d   1     -41.850-122.150 -51.688  0.00  0.00     0.062 A 
ATOM      5  C   UNL d   1     -41.798-122.143 -52.510  0.00  0.00     0.042 A 
ENDROOT
BRANCH   2   6
ATOM      6  C   UNL d   1     -41.808-123.219 -50.668  0.00  0.00     0.083 A 
ATOM      7  C   UNL d   1     -42.504-123.513 -50.354  0.00  0.00     0.019 A 
ATOM      8  C   UNL d   1     -42.516-123.807 -49.592  0.00  0.00     0.002 A 
ATOM      9  C   UNL d   1     -41.838-123.811 -49.140  0.00  0.00     0.000 A 
ATOM     10  C   UNL d   1     -41.142-123.517 -49.454  0.00  0.00     0.002 A 
ATOM     11  C   UNL d   1     -41.123-123.218 -50.223  0.00  0.00     0.019 A 
ENDBRANCH   2   6
BRANCH   4  12
ATOM     12  C   UNL d   1     -41.949-121.475 -51.207  0.00  0.00     0.036 C 
ATOM     13  C   UNL d   1     -42.047-120.802 -50.727  0.00  0.00     0.006 C 
ATOM     14  C   UNL d   1     -41.123-121.432 -51.100  0.00  0.00     0.006 C 
ATOM     15  C   UNL d   1     -42.774-121.523 -51.318  0.00  0.00     0.006 C 
ENDBRANCH   4  12
BRANCH   3  16
ATOM     16  C   UNL d   1     -41.627-123.176 -53.547  0.00  0.00     0.231 C 
ATOM     17  O   UNL d   1     -42.054-122.799 -54.144  0.00  0.00    -0.643 OA
ATOM     18  O   UNL d   1     -41.123-123.800 -53.724  0.00  0.00    -0.643 OA
ENDBRANCH   3  16
TORSDOF 3
ENDMDL
