MODEL 1
REMARK VINA RESULT:      -9.3      0.000      0.000
REMARK  4 active torsions:
REMARK  status: ('A' for Active; 'I' for Inactive)
REMARK    1  A    between atoms: N_2  and  S_1 
REMARK    2  A    between atoms: C_4  and  S_1 
REMARK    3  A    between atoms: C_5  and  N_3 
REMARK    4  A    between atoms: C_12  and  C_13 
ROOT
ATOM      1  N   UNL d   1      51.149  34.173  52.992  0.00  0.00    -0.226 N 
ATOM      2  N   UNL d   1      52.600  33.672  53.596  0.00  0.00    -0.299 N 
ATOM      3  C   UNL d   1      51.221  33.424  53.324  0.00  0.00     0.111 A 
ATOM      4  C   UNL d   1      51.806  34.680  52.960  0.00  0.00     0.111 A 
ATOM      5  C   UNL d   1      51.946  33.173  53.626  0.00  0.00     0.100 A 
ATOM      6  C   UNL d   1      52.531  34.429  53.262  0.00  0.00     0.100 A 
ENDROOT
BRANCH   1   7
ATOM      7  S   UNL d   1      50.420  34.425  52.688  0.00  0.00     0.271 S 
ATOM      8  O   UNL d   1      50.723  34.380  51.922  0.00  0.00    -0.200 OA
ATOM      9  O   UNL d   1      50.116  34.470  53.454  0.00  0.00    -0.200 OA
BRANCH   7  10
ATOM     10  C   UNL d   1      49.698  34.674  52.388  0.00  0.00     0.104 A 
ATOM     11  C   UNL d   1      49.473  34.462  51.625  0.00  0.00     0.013 A 
ATOM     12  C   UNL d   1      48.747  34.713  51.323  0.00  0.00    -0.004 A 
ATOM     13  C   UNL d   1      48.246  35.175  51.784  0.00  0.00    -0.023 A 
ATOM     14  C   UNL d   1      48.471  35.386  52.544  0.00  0.00    -0.004 A 
ATOM     15  C   UNL d   1      49.197  35.135  52.846  0.00  0.00     0.013 A 
BRANCH  13  16
ATOM     16  C   UNL d   1      47.517  35.427  51.480  0.00  0.00     0.019 C 
ATOM     17  C   UNL d   1      47.595  34.897  50.853  0.00  0.00     0.004 C 
ATOM     18  C   UNL d   1      47.439  35.957  52.107  0.00  0.00     0.004 C 
ATOM     19  C   UNL d   1      46.795  35.676  51.179  0.00  0.00     0.004 C 
ENDBRANCH  13  16
ENDBRANCH   7  10
ENDBRANCH   1   7
BRANCH   2  20
ATOM     20  C   UNL d   1      53.333  33.419  53.901  0.00  0.00     0.092 A 
ATOM     21  C   UNL d   1      53.835  32.941  53.439  0.00  0.00     0.156 A 
ATOM     22  F   UNL d   1      53.618  32.734  52.727  0.00  0.00    -0.203 F 
ATOM     23  C   UNL d   1      54.557  32.692  53.739  0.00  0.00     0.031 A 
ATOM     24  C   UNL d   1      54.788  32.917  54.507  0.00  0.00     0.002 A 
ATOM     25  C   UNL d   1      54.289  33.390  54.962  0.00  0.00     0.002 A 
ATOM     26  C   UNL d   1      53.567  33.639  54.661  0.00  0.00     0.020 A 
ENDBRANCH   2  20
TORSDOF 4
ENDMDL
MODEL 2
REMARK VINA RESULT:      -8.3      1.553      5.565
REMARK  4 active torsions:
REMARK  status: ('A' for Active; 'I' for Inactive)
REMARK    1  A    between atoms: N_2  and  S_1 
REMARK    2  A    between atoms: C_4  and  S_1 
REMARK    3  A    between atoms: C_5  and  N_3 
REMARK    4  A    between atoms: C_12  and  C_13 
ROOT
ATOM      1  N   UNL d   1      50.131  34.458  52.625  0.00  0.00    -0.226 N 
ATOM      2  N   UNL d   1      48.684  35.166  52.267  0.00  0.00    -0.299 N 
ATOM      3  C   UNL d   1      49.699  34.835  53.215  0.00  0.00     0.111 A 
ATOM      4  C   UNL d   1      49.841  34.433  51.847  0.00  0.00     0.111 A 
ATOM      5  C   UNL d   1      48.975  35.189  53.036  0.00  0.00     0.100 A 
ATOM      6  C   UNL d   1      49.118  34.787  51.668  0.00  0.00     0.100 A 
ENDROOT
BRANCH   1   7
ATOM      7  S   UNL d   1      50.857  34.103  52.806  0.00  0.00     0.271 S 
ATOM      8  O   UNL d   1      51.204  34.483  52.161  0.00  0.00    -0.200 OA
ATOM      9  O   UNL d   1      50.511  33.722  53.450  0.00  0.00    -0.200 OA
BRANCH   7  10
ATOM     10  C   UNL d   1      51.577  33.750  52.984  0.00  0.00     0.104 A 
ATOM     11  C   UNL d   1      52.205  34.208  53.257  0.00  0.00     0.013 A 
ATOM     12  C   UNL d   1      52.928  33.854  53.436  0.00  0.00    -0.004 A 
ATOM     13  C   UNL d   1      53.024  33.042  53.343  0.00  0.00    -0.023 A 
ATOM     14  C   UNL d   1      52.398  32.587  53.071  0.00  0.00    -0.004 A 
ATOM     15  C   UNL d   1      51.675  32.941  52.892  0.00  0.00     0.013 A 
BRANCH  13  16
ATOM     16  C   UNL d   1      53.750  32.687  53.523  0.00  0.00     0.019 C 
ATOM     17  C   UNL d   1      53.471  31.968  53.231  0.00  0.00     0.004 C 
ATOM     18  C   UNL d   1      54.030  33.406  53.816  0.00  0.00     0.004 C 
ATOM     19  C   UNL d   1      54.470  32.334  53.702  0.00  0.00     0.004 C 
ENDBRANCH  13  16
ENDBRANCH   7  10
ENDBRANCH   1   7
BRANCH   2  20
ATOM     20  C   UNL d   1      47.954  35.524  52.085  0.00  0.00     0.092 A 
ATOM     21  C   UNL d   1      47.733  36.234  52.461  0.00  0.00     0.156 A 
ATOM     22  F   UNL d   1      48.206  36.558  52.976  0.00  0.00    -0.203 F 
ATOM     23  C   UNL d   1      47.013  36.586  52.282  0.00  0.00     0.031 A 
ATOM     24  C   UNL d   1      46.504  36.234  51.726  0.00  0.00     0.002 A 
ATOM     25  C   UNL d   1      46.726  35.531  51.356  0.00  0.00     0.002 A 
ATOM     26  C   UNL d   1      47.446  35.179  51.535  0.00  0.00     0.020 A 
ENDBRANCH   2  20
TORSDOF 4
ENDMDL
