MODEL 1
REMARK VINA RESULT:      23.7      0.000      0.000
REMARK  3 active torsions:
REMARK  status: ('A' for Active; 'I' for Inactive)
REMARK    1  A    between atoms: C_4  and  N_1 
REMARK    2  A    between atoms: C_6  and  C_4 
REMARK       I    between atoms: N_8  and  C_6 
REMARK    3  A    between atoms: C_10  and  N_8 
ROOT
ATOM      1  C   UNL d   1      13.782  12.450  -1.811  0.00  0.00     0.165 C 
ENDROOT
BRANCH   1   2
ATOM      2  N   UNL d   1      14.430  12.493  -1.295  0.00  0.00    -0.204 N 
ATOM      3  N   UNL d   1      14.891  11.850  -1.038  0.00  0.00    -0.059 NA
ATOM      4  N   UNL d   1      15.475  12.140  -0.532  0.00  0.00    -0.129 NA
ATOM      5  C   UNL d   1      15.381  12.960  -0.471  0.00  0.00     0.122 A 
ATOM      6  C   UNL d   1      14.732  13.179  -0.945  0.00  0.00     0.104 A 
ATOM      7  C   UNL d   1      15.797  13.532  -0.052  0.00  0.00     0.022 A 
ATOM      8  C   UNL d   1      14.506  13.968  -0.994  0.00  0.00     0.021 A 
ATOM      9  C   UNL d   1      14.921  14.542  -0.574  0.00  0.00     0.002 A 
ATOM     10  C   UNL d   1      15.563  14.325  -0.105  0.00  0.00     0.002 A 
ENDBRANCH   1   2
BRANCH   1  11
ATOM     11  C   UNL d   1      13.070  12.037  -1.757  0.00  0.00     0.299 C 
ATOM     12  N   UNL d   1      12.795  11.987  -2.529  0.00  0.00    -0.207 NA
ATOM     13  O   UNL d   1      12.797  11.780  -1.022  0.00  0.00    -0.263 OA
BRANCH  12  14
ATOM     14  C   UNL d   1      13.072  12.245  -3.262  0.00  0.00     0.085 A 
ATOM     15  C   UNL d   1      12.808  12.965  -3.571  0.00  0.00     0.019 A 
ATOM     16  C   UNL d   1      13.084  13.223  -4.304  0.00  0.00     0.002 A 
ATOM     17  C   UNL d   1      12.823  13.939  -4.615  0.00  0.00     0.000 C 
ATOM     18  C   UNL d   1      13.625  12.761  -4.727  0.00  0.00     0.000 A 
ATOM     19  C   UNL d   1      13.889  12.038  -4.414  0.00  0.00     0.002 A 
ATOM     20  C   UNL d   1      13.614  11.781  -3.684  0.00  0.00     0.019 A 
ENDBRANCH  12  14
ENDBRANCH   1  11
TORSDOF 3
ENDMDL
