MODEL 1
REMARK VINA RESULT:      -4.0      0.000      0.000
REMARK  5 active torsions:
REMARK  status: ('A' for Active; 'I' for Inactive)
REMARK    1  A    between atoms: N_6  and  C_1 
REMARK    2  A    between atoms: C_8  and  C_2 
REMARK    3  A    between atoms: C_11  and  C_3 
REMARK       I    between atoms: C_7  and  N_6 
REMARK    4  A    between atoms: C_9  and  C_7 
REMARK    5  A    between atoms: C_20  and  C_11 
ROOT
ATOM      1  C   UNL d   1     -47.748  12.339  22.874  0.00  0.00     0.119 A 
ATOM      2  C   UNL d   1     -48.194  11.666  23.016  0.00  0.00     0.084 A 
ATOM      3  C   UNL d   1     -48.915  12.730  23.391  0.00  0.00     0.031 A 
ATOM      4  S   UNL d   1     -48.186  13.003  23.103  0.00  0.00    -0.068 SA
ATOM      5  C   UNL d   1     -48.918  11.909  23.337  0.00  0.00     0.013 A 
ATOM      6  C   UNL d   1     -49.543  11.418  23.567  0.00  0.00     0.001 C 
ENDROOT
BRANCH   1   7
ATOM      7  N   UNL d   1     -46.973  12.355  22.549  0.00  0.00    -0.201 NA
ATOM      8  C   UNL d   1     -46.435  12.946  22.782  0.00  0.00     0.280 C 
ATOM      9  O   UNL d   1     -46.655  13.518  23.332  0.00  0.00    -0.265 OA
BRANCH   8  10
ATOM     10  C   UNL d   1     -45.672  12.955  22.458  0.00  0.00     0.058 A 
ATOM     11  C   UNL d   1     -45.128  12.363  22.661  0.00  0.00     0.005 A 
ATOM     12  C   UNL d   1     -44.390  12.376  22.344  0.00  0.00     0.000 A 
ATOM     13  C   UNL d   1     -43.866  11.766  22.569  0.00  0.00     0.000 A 
ATOM     14  C   UNL d   1     -44.146  12.951  21.824  0.00  0.00     0.000 A 
ATOM     15  C   UNL d   1     -43.111  11.754  22.262  0.00  0.00     0.000 A 
ATOM     16  C   UNL d   1     -42.860  12.336  21.735  0.00  0.00     0.000 A 
ATOM     17  C   UNL d   1     -43.388  12.937  21.518  0.00  0.00     0.000 A 
ATOM     18  C   UNL d   1     -44.696  13.563  21.608  0.00  0.00     0.000 A 
ATOM     19  C   UNL d   1     -45.455  13.552  21.933  0.00  0.00     0.005 A 
ENDBRANCH   8  10
ENDBRANCH   1   7
BRANCH   2  20
ATOM     20  C   UNL d   1     -47.975  10.885  22.870  0.00  0.00     0.299 C 
ATOM     21  O   UNL d   1     -47.661  10.394  23.538  0.00  0.00    -0.264 OA
ATOM     22  N   UNL d   1     -48.038  10.579  22.170  0.00  0.00    -0.102 N 
ENDBRANCH   2  20
BRANCH   3  23
ATOM     23  C   UNL d   1     -49.578  13.134  23.698  0.00  0.00     0.007 C 
BRANCH  23  24
ATOM     24  C   UNL d   1     -49.822  13.849  23.349  0.00  0.00     0.003 A 
ATOM     25  C   UNL d   1     -50.296  13.832  22.669  0.00  0.00     0.026 A 
ATOM     26  C   UNL d   1     -50.542  14.534  22.318  0.00  0.00     0.119 A 
ATOM     27  O   UNL d   1     -51.002  14.683  21.658  0.00  0.00    -0.300 OA
ATOM     28  C   UNL d   1     -50.317  15.258  22.642  0.00  0.00     0.119 A 
ATOM     29  C   UNL d   1     -51.064  15.495  21.570  0.00  0.00     0.304 A 
ATOM     30  O   UNL d   1     -50.640  15.849  22.180  0.00  0.00    -0.300 OA
ATOM     31  C   UNL d   1     -49.847  15.279  23.317  0.00  0.00     0.026 A 
ATOM     32  C   UNL d   1     -49.597  14.573  23.673  0.00  0.00     0.002 A 
ENDBRANCH  23  24
ENDBRANCH   3  23
TORSDOF 5
ENDMDL
MODEL 2
REMARK VINA RESULT:      -3.6      1.657      2.717
REMARK  5 active torsions:
REMARK  status: ('A' for Active; 'I' for Inactive)
REMARK    1  A    between atoms: N_6  and  C_1 
REMARK    2  A    between atoms: C_8  and  C_2 
REMARK    3  A    between atoms: C_11  and  C_3 
REMARK       I    between atoms: C_7  and  N_6 
REMARK    4  A    between atoms: C_9  and  C_7 
REMARK    5  A    between atoms: C_20  and  C_11 
ROOT
ATOM      1  C   UNL d   1     -46.839  13.208  23.062  0.00  0.00     0.119 A 
ATOM      2  C   UNL d   1     -46.672  14.001  22.940  0.00  0.00     0.084 A 
ATOM      3  C   UNL d   1     -48.000  13.867  23.043  0.00  0.00     0.031 A 
ATOM      4  S   UNL d   1     -47.660  13.115  23.127  0.00  0.00    -0.068 SA
ATOM      5  C   UNL d   1     -47.392  14.410  22.928  0.00  0.00     0.013 A 
ATOM      6  C   UNL d   1     -47.494  15.224  22.819  0.00  0.00     0.001 C 
ENDROOT
BRANCH   1   7
ATOM      7  N   UNL d   1     -46.273  12.590  23.114  0.00  0.00    -0.201 NA
ATOM      8  C   UNL d   1     -46.492  11.848  23.424  0.00  0.00     0.280 C 
ATOM      9  O   UNL d   1     -47.263  11.715  23.683  0.00  0.00    -0.265 OA
BRANCH   8  10
ATOM     10  C   UNL d   1     -45.928  11.243  23.472  0.00  0.00     0.058 A 
ATOM     11  C   UNL d   1     -45.126  11.411  23.342  0.00  0.00     0.005 A 
ATOM     12  C   UNL d   1     -44.584  10.821  23.390  0.00  0.00     0.000 A 
ATOM     13  C   UNL d   1     -43.785  11.024  23.253  0.00  0.00     0.000 A 
ATOM     14  C   UNL d   1     -44.784  10.053  23.562  0.00  0.00     0.000 A 
ATOM     15  C   UNL d   1     -43.213  10.445  23.295  0.00  0.00     0.000 A 
ATOM     16  C   UNL d   1     -43.413   9.665  23.470  0.00  0.00     0.000 A 
ATOM     17  C   UNL d   1     -44.208   9.474  23.603  0.00  0.00     0.000 A 
ATOM     18  C   UNL d   1     -45.604   9.869  23.698  0.00  0.00     0.000 A 
ATOM     19  C   UNL d   1     -46.164  10.473  23.650  0.00  0.00     0.005 A 
ENDBRANCH   8  10
ENDBRANCH   1   7
BRANCH   2  20
ATOM     20  C   UNL d   1     -45.928  14.343  22.845  0.00  0.00     0.299 C 
ATOM     21  O   UNL d   1     -45.445  14.530  23.564  0.00  0.00    -0.264 OA
ATOM     22  N   UNL d   1     -45.650  14.501  22.147  0.00  0.00    -0.102 N 
ENDBRANCH   2  20
BRANCH   3  23
ATOM     23  C   UNL d   1     -48.794  14.122  23.057  0.00  0.00     0.007 C 
BRANCH  23  24
ATOM     24  C   UNL d   1     -49.380  13.666  22.680  0.00  0.00     0.003 A 
ATOM     25  C   UNL d   1     -49.531  13.780  21.872  0.00  0.00     0.026 A 
ATOM     26  C   UNL d   1     -50.108  13.334  21.492  0.00  0.00     0.119 A 
ATOM     27  O   UNL d   1     -50.371  13.326  20.717  0.00  0.00    -0.300 OA
ATOM     28  C   UNL d   1     -50.538  12.771  21.913  0.00  0.00     0.119 A 
ATOM     29  C   UNL d   1     -50.962  12.763  20.655  0.00  0.00     0.304 A 
ATOM     30  O   UNL d   1     -51.064  12.420  21.396  0.00  0.00    -0.300 OA
ATOM     31  C   UNL d   1     -50.392  12.655  22.715  0.00  0.00     0.026 A 
ATOM     32  C   UNL d   1     -49.811  13.104  23.101  0.00  0.00     0.002 A 
ENDBRANCH  23  24
ENDBRANCH   3  23
TORSDOF 5
ENDMDL
MODEL 3
REMARK VINA RESULT:      -3.5      5.784      8.684
REMARK  5 active torsions:
REMARK  status: ('A' for Active; 'I' for Inactive)
REMARK    1  A    between atoms: N_6  and  C_1 
REMARK    2  A    between atoms: C_8  and  C_2 
REMARK    3  A    between atoms: C_11  and  C_3 
REMARK       I    between atoms: C_7  and  N_6 
REMARK    4  A    between atoms: C_9  and  C_7 
REMARK    5  A    between atoms: C_20  and  C_11 
ROOT
ATOM      1  C   UNL d   1     -39.770  14.580  19.771  0.00  0.00     0.119 A 
ATOM      2  C   UNL d   1     -39.446  14.984  20.407  0.00  0.00     0.084 A 
ATOM      3  C   UNL d   1     -40.748  14.795  20.655  0.00  0.00     0.031 A 
ATOM      4  S   UNL d   1     -40.577  14.459  19.916  0.00  0.00    -0.068 SA
ATOM      5  C   UNL d   1     -40.053  15.118  20.955  0.00  0.00     0.013 A 
ATOM      6  C   UNL d   1     -39.982  15.507  21.681  0.00  0.00     0.001 C 
ENDROOT
BRANCH   1   7
ATOM      7  N   UNL d   1     -39.354  14.330  19.086  0.00  0.00    -0.201 NA
ATOM      8  C   UNL d   1     -39.731  14.341  18.343  0.00  0.00     0.280 C 
ATOM      9  O   UNL d   1     -40.511  14.597  18.273  0.00  0.00    -0.265 OA
BRANCH   8  10
ATOM     10  C   UNL d   1     -39.314  14.093  17.670  0.00  0.00     0.058 A 
ATOM     11  C   UNL d   1     -39.167  14.627  17.053  0.00  0.00     0.005 A 
ATOM     12  C   UNL d   1     -38.763  14.382  16.403  0.00  0.00     0.000 A 
ATOM     13  C   UNL d   1     -38.631  14.944  15.800  0.00  0.00     0.000 A 
ATOM     14  C   UNL d   1     -38.487  13.623  16.319  0.00  0.00     0.000 A 
ATOM     15  C   UNL d   1     -38.224  14.723  15.129  0.00  0.00     0.000 A 
ATOM     16  C   UNL d   1     -37.943  13.953  15.041  0.00  0.00     0.000 A 
ATOM     17  C   UNL d   1     -38.079  13.403  15.646  0.00  0.00     0.000 A 
ATOM     18  C   UNL d   1     -38.632  13.066  16.946  0.00  0.00     0.000 A 
ATOM     19  C   UNL d   1     -39.047  13.315  17.615  0.00  0.00     0.005 A 
ENDBRANCH   8  10
ENDBRANCH   1   7
BRANCH   2  20
ATOM     20  C   UNL d   1     -38.661  15.221  20.497  0.00  0.00     0.299 C 
ATOM     21  O   UNL d   1     -38.077  14.651  20.843  0.00  0.00    -0.264 OA
ATOM     22  N   UNL d   1     -38.432  15.922  20.287  0.00  0.00    -0.102 N 
ENDBRANCH   2  20
BRANCH   3  23
ATOM     23  C   UNL d   1     -41.457  14.847  21.091  0.00  0.00     0.007 C 
BRANCH  23  24
ATOM     24  C   UNL d   1     -41.908  14.160  21.226  0.00  0.00     0.003 A 
ATOM     25  C   UNL d   1     -42.733  14.219  21.295  0.00  0.00     0.026 A 
ATOM     26  C   UNL d   1     -43.186  13.546  21.428  0.00  0.00     0.119 A 
ATOM     27  O   UNL d   1     -43.992  13.439  21.518  0.00  0.00    -0.300 OA
ATOM     28  C   UNL d   1     -42.822  12.810  21.494  0.00  0.00     0.119 A 
ATOM     29  C   UNL d   1     -44.131  12.640  21.639  0.00  0.00     0.304 A 
ATOM     30  O   UNL d   1     -43.405  12.253  21.624  0.00  0.00    -0.300 OA
ATOM     31  C   UNL d   1     -42.004  12.747  21.426  0.00  0.00     0.026 A 
ATOM     32  C   UNL d   1     -41.544  13.424  21.292  0.00  0.00     0.002 A 
ENDBRANCH  23  24
ENDBRANCH   3  23
TORSDOF 5
ENDMDL
MODEL 4
REMARK VINA RESULT:      -3.5      4.771      8.135
REMARK  5 active torsions:
REMARK  status: ('A' for Active; 'I' for Inactive)
REMARK    1  A    between atoms: N_6  and  C_1 
REMARK    2  A    between atoms: C_8  and  C_2 
REMARK    3  A    between atoms: C_11  and  C_3 
REMARK       I    between atoms: C_7  and  N_6 
REMARK    4  A    between atoms: C_9  and  C_7 
REMARK    5  A    between atoms: C_20  and  C_11 
ROOT
ATOM      1  C   UNL d   1     -40.893  14.485  20.815  0.00  0.00     0.119 A 
ATOM      2  C   UNL d   1     -40.128  14.587  21.092  0.00  0.00     0.084 A 
ATOM      3  C   UNL d   1     -40.218  15.177  19.893  0.00  0.00     0.031 A 
ATOM      4  S   UNL d   1     -40.958  14.847  20.073  0.00  0.00    -0.068 SA
ATOM      5  C   UNL d   1     -39.709  15.016  20.520  0.00  0.00     0.013 A 
ATOM      6  C   UNL d   1     -38.916  15.248  20.562  0.00  0.00     0.001 C 
ENDROOT
BRANCH   1   7
ATOM      7  N   UNL d   1     -41.510  14.080  21.216  0.00  0.00    -0.201 NA
ATOM      8  C   UNL d   1     -42.066  13.635  20.785  0.00  0.00     0.280 C 
ATOM      9  O   UNL d   1     -42.017  13.588  19.964  0.00  0.00    -0.265 OA
BRANCH   8  10
ATOM     10  C   UNL d   1     -42.673  13.238  21.188  0.00  0.00     0.058 A 
ATOM     11  C   UNL d   1     -43.405  13.610  21.304  0.00  0.00     0.005 A 
ATOM     12  C   UNL d   1     -43.989  13.221  21.695  0.00  0.00     0.000 A 
ATOM     13  C   UNL d   1     -44.715  13.623  21.796  0.00  0.00     0.000 A 
ATOM     14  C   UNL d   1     -43.897  12.469  21.987  0.00  0.00     0.000 A 
ATOM     15  C   UNL d   1     -45.325  13.253  22.189  0.00  0.00     0.000 A 
ATOM     16  C   UNL d   1     -45.235  12.489  22.486  0.00  0.00     0.000 A 
ATOM     17  C   UNL d   1     -44.511  12.100  22.380  0.00  0.00     0.000 A 
ATOM     18  C   UNL d   1     -43.150  12.078  21.872  0.00  0.00     0.000 A 
ATOM     19  C   UNL d   1     -42.547  12.475  21.471  0.00  0.00     0.005 A 
ENDBRANCH   8  10
ENDBRANCH   1   7
BRANCH   2  20
ATOM     20  C   UNL d   1     -39.818  14.317  21.807  0.00  0.00     0.299 C 
ATOM     21  O   UNL d   1     -39.958  14.790  22.543  0.00  0.00    -0.264 OA
ATOM     22  N   UNL d   1     -39.413  13.667  21.843  0.00  0.00    -0.102 N 
ENDBRANCH   2  20
BRANCH   3  23
ATOM     23  C   UNL d   1     -39.947  15.605  19.231  0.00  0.00     0.007 C 
BRANCH  23  24
ATOM     24  C   UNL d   1     -40.214  15.400  18.470  0.00  0.00     0.003 A 
ATOM     25  C   UNL d   1     -40.851  15.813  18.135  0.00  0.00     0.026 A 
ATOM     26  C   UNL d   1     -41.122  15.617  17.383  0.00  0.00     0.119 A 
ATOM     27  O   UNL d   1     -41.726  15.922  16.924  0.00  0.00    -0.300 OA
ATOM     28  C   UNL d   1     -40.760  15.009  16.960  0.00  0.00     0.119 A 
ATOM     29  C   UNL d   1     -41.742  15.507  16.217  0.00  0.00     0.304 A 
ATOM     30  O   UNL d   1     -41.144  14.942  16.242  0.00  0.00    -0.300 OA
ATOM     31  C   UNL d   1     -40.128  14.597  17.289  0.00  0.00     0.026 A 
ATOM     32  C   UNL d   1     -39.853  14.792  18.047  0.00  0.00     0.002 A 
ENDBRANCH  23  24
ENDBRANCH   3  23
TORSDOF 5
ENDMDL
MODEL 5
REMARK VINA RESULT:      -2.0      2.119      3.334
REMARK  5 active torsions:
REMARK  status: ('A' for Active; 'I' for Inactive)
REMARK    1  A    between atoms: N_6  and  C_1 
REMARK    2  A    between atoms: C_8  and  C_2 
REMARK    3  A    between atoms: C_11  and  C_3 
REMARK       I    between atoms: C_7  and  N_6 
REMARK    4  A    between atoms: C_9  and  C_7 
REMARK    5  A    between atoms: C_20  and  C_11 
ROOT
ATOM      1  C   UNL d   1     -44.438  11.961  22.645  0.00  0.00     0.119 A 
ATOM      2  C   UNL d   1     -44.507  11.262  23.067  0.00  0.00     0.084 A 
ATOM      3  C   UNL d   1     -45.725  11.811  22.969  0.00  0.00     0.031 A 
ATOM      4  S   UNL d   1     -45.188  12.308  22.580  0.00  0.00    -0.068 SA
ATOM      5  C   UNL d   1     -45.305  11.169  23.268  0.00  0.00     0.013 A 
ATOM      6  C   UNL d   1     -45.634  10.541  23.696  0.00  0.00     0.001 C 
ENDROOT
BRANCH   1   7
ATOM      7  N   UNL d   1     -43.726  12.276  22.330  0.00  0.00    -0.201 NA
ATOM      8  C   UNL d   1     -43.750  12.786  21.672  0.00  0.00     0.280 C 
ATOM      9  O   UNL d   1     -44.470  12.985  21.324  0.00  0.00    -0.265 OA
BRANCH   8  10
ATOM     10  C   UNL d   1     -43.043  13.092  21.366  0.00  0.00     0.058 A 
ATOM     11  C   UNL d   1     -42.880  13.902  21.432  0.00  0.00     0.005 A 
ATOM     12  C   UNL d   1     -42.194  14.195  21.135  0.00  0.00     0.000 A 
ATOM     13  C   UNL d   1     -42.059  15.015  21.218  0.00  0.00     0.000 A 
ATOM     14  C   UNL d   1     -41.641  13.728  20.765  0.00  0.00     0.000 A 
ATOM     15  C   UNL d   1     -41.371  15.339  20.925  0.00  0.00     0.000 A 
ATOM     16  C   UNL d   1     -40.809  14.868  20.550  0.00  0.00     0.000 A 
ATOM     17  C   UNL d   1     -40.952  14.056  20.472  0.00  0.00     0.000 A 
ATOM     18  C   UNL d   1     -41.799  12.895  20.691  0.00  0.00     0.000 A 
ATOM     19  C   UNL d   1     -42.503  12.591  20.996  0.00  0.00     0.005 A 
ENDBRANCH   8  10
ENDBRANCH   1   7
BRANCH   2  20
ATOM     20  C   UNL d   1     -43.901  10.738  23.263  0.00  0.00     0.299 C 
ATOM     21  O   UNL d   1     -43.192  11.043  23.698  0.00  0.00    -0.264 OA
ATOM     22  N   UNL d   1     -43.944   9.996  23.075  0.00  0.00    -0.102 N 
ENDBRANCH   2  20
BRANCH   3  23
ATOM     23  C   UNL d   1     -46.549  11.866  23.088  0.00  0.00     0.007 C 
BRANCH  23  24
ATOM     24  C   UNL d   1     -46.934  12.595  22.968  0.00  0.00     0.003 A 
ATOM     25  C   UNL d   1     -47.501  12.663  22.367  0.00  0.00     0.026 A 
ATOM     26  C   UNL d   1     -47.886  13.379  22.242  0.00  0.00     0.119 A 
ATOM     27  O   UNL d   1     -48.458  13.605  21.702  0.00  0.00    -0.300 OA
ATOM     28  C   UNL d   1     -47.709  14.031  22.714  0.00  0.00     0.119 A 
ATOM     29  C   UNL d   1     -48.638  14.393  21.836  0.00  0.00     0.304 A 
ATOM     30  O   UNL d   1     -48.173  14.655  22.463  0.00  0.00    -0.300 OA
ATOM     31  C   UNL d   1     -47.147  13.967  23.311  0.00  0.00     0.026 A 
ATOM     32  C   UNL d   1     -46.757  13.247  23.440  0.00  0.00     0.002 A 
ENDBRANCH  23  24
ENDBRANCH   3  23
TORSDOF 5
ENDMDL
MODEL 6
REMARK VINA RESULT:      -1.6      5.282      9.035
REMARK  5 active torsions:
REMARK  status: ('A' for Active; 'I' for Inactive)
REMARK    1  A    between atoms: N_6  and  C_1 
REMARK    2  A    between atoms: C_8  and  C_2 
REMARK    3  A    between atoms: C_11  and  C_3 
REMARK       I    between atoms: C_7  and  N_6 
REMARK    4  A    between atoms: C_9  and  C_7 
REMARK    5  A    between atoms: C_20  and  C_11 
ROOT
ATOM      1  C   UNL d   1     -40.400  14.399  20.747  0.00  0.00     0.119 A 
ATOM      2  C   UNL d   1     -39.789  14.796  21.124  0.00  0.00     0.084 A 
ATOM      3  C   UNL d   1     -39.499  14.730  19.818  0.00  0.00     0.031 A 
ATOM      4  S   UNL d   1     -40.228  14.353  19.938  0.00  0.00    -0.068 SA
ATOM      5  C   UNL d   1     -39.230  15.002  20.548  0.00  0.00     0.013 A 
ATOM      6  C   UNL d   1     -38.522  15.409  20.674  0.00  0.00     0.001 C 
ENDROOT
BRANCH   1   7
ATOM      7  N   UNL d   1     -41.086  14.089  21.119  0.00  0.00    -0.201 NA
ATOM      8  C   UNL d   1     -41.717  13.802  20.657  0.00  0.00     0.280 C 
ATOM      9  O   UNL d   1     -41.674  13.820  19.834  0.00  0.00    -0.265 OA
BRANCH   8  10
ATOM     10  C   UNL d   1     -42.392  13.497  21.030  0.00  0.00     0.058 A 
ATOM     11  C   UNL d   1     -42.348  12.780  21.444  0.00  0.00     0.005 A 
ATOM     12  C   UNL d   1     -43.004  12.489  21.804  0.00  0.00     0.000 A 
ATOM     13  C   UNL d   1     -42.927  11.764  22.213  0.00  0.00     0.000 A 
ATOM     14  C   UNL d   1     -43.722  12.870  21.783  0.00  0.00     0.000 A 
ATOM     15  C   UNL d   1     -43.576  11.446  22.587  0.00  0.00     0.000 A 
ATOM     16  C   UNL d   1     -44.306  11.829  22.568  0.00  0.00     0.000 A 
ATOM     17  C   UNL d   1     -44.372  12.547  22.160  0.00  0.00     0.000 A 
ATOM     18  C   UNL d   1     -43.778  13.606  21.361  0.00  0.00     0.000 A 
ATOM     19  C   UNL d   1     -43.105  13.908  20.990  0.00  0.00     0.005 A 
ENDBRANCH   8  10
ENDBRANCH   1   7
BRANCH   2  20
ATOM     20  C   UNL d   1     -39.730  14.967  21.928  0.00  0.00     0.299 C 
ATOM     21  O   UNL d   1     -40.064  15.730  22.232  0.00  0.00    -0.264 OA
ATOM     22  N   UNL d   1     -39.391  14.479  22.413  0.00  0.00    -0.102 N 
ENDBRANCH   2  20
BRANCH   3  23
ATOM     23  C   UNL d   1     -39.046  14.858  19.130  0.00  0.00     0.007 C 
BRANCH  23  24
ATOM     24  C   UNL d   1     -38.964  14.247  18.571  0.00  0.00     0.003 A 
ATOM     25  C   UNL d   1     -38.470  13.602  18.740  0.00  0.00     0.026 A 
ATOM     26  C   UNL d   1     -38.384  12.993  18.194  0.00  0.00     0.119 A 
ATOM     27  O   UNL d   1     -37.944  12.303  18.210  0.00  0.00    -0.300 OA
ATOM     28  C   UNL d   1     -38.787  13.022  17.476  0.00  0.00     0.119 A 
ATOM     29  C   UNL d   1     -38.072  11.903  17.506  0.00  0.00     0.304 A 
ATOM     30  O   UNL d   1     -38.594  12.350  17.053  0.00  0.00    -0.300 OA
ATOM     31  C   UNL d   1     -39.277  13.660  17.304  0.00  0.00     0.026 A 
ATOM     32  C   UNL d   1     -39.367  14.276  17.853  0.00  0.00     0.002 A 
ENDBRANCH  23  24
ENDBRANCH   3  23
TORSDOF 5
ENDMDL
MODEL 7
REMARK VINA RESULT:      -1.3      1.467      5.370
REMARK  5 active torsions:
REMARK  status: ('A' for Active; 'I' for Inactive)
REMARK    1  A    between atoms: N_6  and  C_1 
REMARK    2  A    between atoms: C_8  and  C_2 
REMARK    3  A    between atoms: C_11  and  C_3 
REMARK       I    between atoms: C_7  and  N_6 
REMARK    4  A    between atoms: C_9  and  C_7 
REMARK    5  A    between atoms: C_20  and  C_11 
ROOT
ATOM      1  C   UNL d   1     -47.285  12.434  23.064  0.00  0.00     0.119 A 
ATOM      2  C   UNL d   1     -47.239  11.623  23.173  0.00  0.00     0.084 A 
ATOM      3  C   UNL d   1     -45.994  12.115  23.190  0.00  0.00     0.031 A 
ATOM      4  S   UNL d   1     -46.518  12.748  23.073  0.00  0.00    -0.068 SA
ATOM      5  C   UNL d   1     -46.438  11.425  23.251  0.00  0.00     0.013 A 
ATOM      6  C   UNL d   1     -46.128  10.667  23.370  0.00  0.00     0.001 C 
ENDROOT
BRANCH   1   7
ATOM      7  N   UNL d   1     -47.991  12.876  22.960  0.00  0.00    -0.201 NA
ATOM      8  C   UNL d   1     -47.960  13.645  22.642  0.00  0.00     0.280 C 
ATOM      9  O   UNL d   1     -47.238  13.978  22.426  0.00  0.00    -0.265 OA
BRANCH   8  10
ATOM     10  C   UNL d   1     -48.661  14.075  22.542  0.00  0.00     0.058 A 
ATOM     11  C   UNL d   1     -48.929  14.577  23.145  0.00  0.00     0.005 A 
ATOM     12  C   UNL d   1     -49.609  14.992  23.044  0.00  0.00     0.000 A 
ATOM     13  C   UNL d   1     -49.851  15.489  23.670  0.00  0.00     0.000 A 
ATOM     14  C   UNL d   1     -50.056  14.943  22.368  0.00  0.00     0.000 A 
ATOM     15  C   UNL d   1     -50.537  15.922  23.595  0.00  0.00     0.000 A 
ATOM     16  C   UNL d   1     -50.993  15.874  22.910  0.00  0.00     0.000 A 
ATOM     17  C   UNL d   1     -50.745  15.378  22.295  0.00  0.00     0.000 A 
ATOM     18  C   UNL d   1     -49.791  14.430  21.742  0.00  0.00     0.000 A 
ATOM     19  C   UNL d   1     -49.092  14.003  21.844  0.00  0.00     0.005 A 
ENDBRANCH   8  10
ENDBRANCH   1   7
BRANCH   2  20
ATOM     20  C   UNL d   1     -47.867  11.089  23.202  0.00  0.00     0.299 C 
ATOM     21  O   UNL d   1     -47.849  10.375  22.677  0.00  0.00    -0.264 OA
ATOM     22  N   UNL d   1     -48.461  11.201  23.674  0.00  0.00    -0.102 N 
ENDBRANCH   2  20
BRANCH   3  23
ATOM     23  C   UNL d   1     -45.162  12.086  23.247  0.00  0.00     0.007 C 
BRANCH  23  24
ATOM     24  C   UNL d   1     -44.696  12.443  22.657  0.00  0.00     0.003 A 
ATOM     25  C   UNL d   1     -43.986  12.082  22.423  0.00  0.00     0.026 A 
ATOM     26  C   UNL d   1     -43.520  12.427  21.840  0.00  0.00     0.119 A 
ATOM     27  O   UNL d   1     -42.808  12.201  21.505  0.00  0.00    -0.300 OA
ATOM     28  C   UNL d   1     -43.755  13.134  21.488  0.00  0.00     0.119 A 
ATOM     29  C   UNL d   1     -42.601  12.764  20.946  0.00  0.00     0.304 A 
ATOM     30  O   UNL d   1     -43.188  13.340  20.937  0.00  0.00    -0.300 OA
ATOM     31  C   UNL d   1     -44.458  13.495  21.718  0.00  0.00     0.026 A 
ATOM     32  C   UNL d   1     -44.931  13.149  22.305  0.00  0.00     0.002 A 
ENDBRANCH  23  24
ENDBRANCH   3  23
TORSDOF 5
ENDMDL
