MODEL 1
REMARK VINA RESULT:      50.5      0.000      0.000
REMARK  4 active torsions:
REMARK  status: ('A' for Active; 'I' for Inactive)
REMARK    1  A    between atoms: N_2  and  S_1 
REMARK    2  A    between atoms: C_3  and  S_1 
REMARK    3  A    between atoms: O_16  and  C_8 
REMARK    4  A    between atoms: O_17  and  C_11 
ROOT
ATOM      1  S   UNL d   1     -51.319  26.157  33.488  0.00  0.00     0.271 S 
ATOM      2  O   UNL d   1     -50.607  25.788  33.669  0.00  0.00    -0.200 OA
ATOM      3  O   UNL d   1     -52.040  26.530  33.306  0.00  0.00    -0.200 OA
ENDROOT
BRANCH   1   4
ATOM      4  N   UNL d   1     -51.697  25.424  33.459  0.00  0.00    -0.229 N 
ATOM      5  C   UNL d   1     -52.521  25.388  33.428  0.00  0.00     0.092 A 
ATOM      6  C   UNL d   1     -52.899  24.655  33.399  0.00  0.00     0.018 A 
ATOM      7  C   UNL d   1     -53.723  24.619  33.367  0.00  0.00     0.002 A 
ATOM      8  C   UNL d   1     -52.454  23.959  33.401  0.00  0.00     0.003 A 
ATOM      9  C   UNL d   1     -54.101  23.886  33.338  0.00  0.00     0.000 A 
ATOM     10  C   UNL d   1     -53.656  23.190  33.341  0.00  0.00     0.000 A 
ATOM     11  C   UNL d   1     -52.832  23.226  33.372  0.00  0.00     0.000 A 
ATOM     12  C   UNL d   1     -51.630  23.995  33.433  0.00  0.00     0.020 A 
ATOM     13  C   UNL d   1     -51.252  24.728  33.462  0.00  0.00     0.092 A 
ENDBRANCH   1   4
BRANCH   1  14
ATOM     14  C   UNL d   1     -50.950  26.890  33.516  0.00  0.00     0.106 A 
ATOM     15  C   UNL d   1     -50.124  26.931  33.520  0.00  0.00     0.039 A 
ATOM     16  C   UNL d   1     -49.751  27.664  33.547  0.00  0.00     0.117 A 
ATOM     17  C   UNL d   1     -50.195  28.356  33.570  0.00  0.00     0.116 A 
ATOM     18  C   UNL d   1     -51.021  28.315  33.566  0.00  0.00     0.027 A 
ATOM     19  C   UNL d   1     -51.390  27.582  33.538  0.00  0.00     0.015 A 
BRANCH  16  20
ATOM     20  O   UNL d   1     -48.926  27.704  33.552  0.00  0.00    -0.326 OA
ATOM     21  C   UNL d   1     -48.481  27.058  33.818  0.00  0.00     0.181 C 
ENDBRANCH  16  20
BRANCH  17  22
ATOM     22  O   UNL d   1     -49.818  29.093  33.597  0.00  0.00    -0.326 OA
ATOM     23  C   UNL d   1     -50.084  29.674  34.120  0.00  0.00     0.181 C 
ENDBRANCH  17  22
ENDBRANCH   1  14
TORSDOF 4
ENDMDL
