MODEL 1
REMARK VINA RESULT:      -8.9      0.000      0.000
REMARK  0 active torsions:
REMARK  status: ('A' for Active; 'I' for Inactive)
ROOT
ATOM      1  C   UNL d   1     -48.343  12.086  23.356  0.00  0.00     0.180 A 
ATOM      2  C   UNL d   1     -48.741  12.807  23.249  0.00  0.00     0.118 A 
ATOM      3  N   UNL d   1     -48.326  13.487  23.059  0.00  0.00    -0.241 NA
ATOM      4  N   UNL d   1     -48.903  11.508  23.541  0.00  0.00    -0.225 NA
ATOM      5  N   UNL d   1     -47.524  12.060  23.271  0.00  0.00    -0.224 NA
ATOM      6  C   UNL d   1     -49.548  12.666  23.369  0.00  0.00     0.038 A 
ATOM      7  C   UNL d   1     -49.651  11.866  23.549  0.00  0.00     0.085 A 
ATOM      8  C   UNL d   1     -47.508  13.453  22.975  0.00  0.00     0.099 A 
ATOM      9  C   UNL d   1     -47.109  12.740  23.081  0.00  0.00     0.101 A 
ATOM     10  C   UNL d   1     -50.205  13.170  23.336  0.00  0.00     0.003 A 
ATOM     11  C   UNL d   1     -50.412  11.562  23.698  0.00  0.00     0.019 A 
ATOM     12  C   UNL d   1     -47.085  14.132  22.785  0.00  0.00     0.021 A 
ATOM     13  C   UNL d   1     -46.294  12.711  22.996  0.00  0.00     0.021 A 
ATOM     14  C   UNL d   1     -50.961  12.865  23.484  0.00  0.00     0.000 A 
ATOM     15  C   UNL d   1     -51.064  12.066  23.664  0.00  0.00     0.002 A 
ATOM     16  C   UNL d   1     -46.270  14.103  22.700  0.00  0.00     0.002 A 
ATOM     17  C   UNL d   1     -45.871  13.389  22.806  0.00  0.00     0.002 A 
ENDROOT
TORSDOF 0
ENDMDL
MODEL 2
REMARK VINA RESULT:      -8.8      0.321      3.404
REMARK  0 active torsions:
REMARK  status: ('A' for Active; 'I' for Inactive)
ROOT
ATOM      1  C   UNL d   1     -48.085  12.157  23.309  0.00  0.00     0.180 A 
ATOM      2  C   UNL d   1     -48.220  12.953  23.112  0.00  0.00     0.118 A 
ATOM      3  N   UNL d   1     -48.980  13.258  23.110  0.00  0.00    -0.241 NA
ATOM      4  N   UNL d   1     -47.273  12.016  23.262  0.00  0.00    -0.225 NA
ATOM      5  N   UNL d   1     -48.725  11.676  23.504  0.00  0.00    -0.224 NA
ATOM      6  C   UNL d   1     -47.486  13.296  22.944  0.00  0.00     0.038 A 
ATOM      7  C   UNL d   1     -46.900  12.720  23.035  0.00  0.00     0.085 A 
ATOM      8  C   UNL d   1     -49.614  12.771  23.306  0.00  0.00     0.099 A 
ATOM      9  C   UNL d   1     -49.485  11.980  23.503  0.00  0.00     0.101 A 
ATOM     10  C   UNL d   1     -47.277  14.065  22.717  0.00  0.00     0.003 A 
ATOM     11  C   UNL d   1     -46.099  12.907  22.902  0.00  0.00     0.019 A 
ATOM     12  C   UNL d   1     -50.379  13.070  23.307  0.00  0.00     0.021 A 
ATOM     13  C   UNL d   1     -50.118  11.499  23.697  0.00  0.00     0.021 A 
ATOM     14  C   UNL d   1     -46.480  14.250  22.584  0.00  0.00     0.000 A 
ATOM     15  C   UNL d   1     -45.894  13.674  22.676  0.00  0.00     0.002 A 
ATOM     16  C   UNL d   1     -51.013  12.588  23.501  0.00  0.00     0.002 A 
ATOM     17  C   UNL d   1     -50.884  11.798  23.698  0.00  0.00     0.002 A 
ENDROOT
TORSDOF 0
ENDMDL
MODEL 3
REMARK VINA RESULT:      -8.6      1.443      3.117
REMARK  0 active torsions:
REMARK  status: ('A' for Active; 'I' for Inactive)
ROOT
ATOM      1  C   UNL d   1     -47.447  13.772  22.961  0.00  0.00     0.180 A 
ATOM      2  C   UNL d   1     -47.979  13.166  23.164  0.00  0.00     0.118 A 
ATOM      3  N   UNL d   1     -48.785  13.306  23.168  0.00  0.00    -0.241 NA
ATOM      4  N   UNL d   1     -46.681  13.466  23.007  0.00  0.00    -0.225 NA
ATOM      5  N   UNL d   1     -47.739  14.516  22.764  0.00  0.00    -0.224 NA
ATOM      6  C   UNL d   1     -47.533  12.489  23.334  0.00  0.00     0.038 A 
ATOM      7  C   UNL d   1     -46.732  12.672  23.238  0.00  0.00     0.085 A 
ATOM      8  C   UNL d   1     -49.070  14.052  22.969  0.00  0.00     0.099 A 
ATOM      9  C   UNL d   1     -48.546  14.656  22.767  0.00  0.00     0.101 A 
ATOM     10  C   UNL d   1     -47.758  11.727  23.565  0.00  0.00     0.003 A 
ATOM     11  C   UNL d   1     -46.148  12.093  23.372  0.00  0.00     0.019 A 
ATOM     12  C   UNL d   1     -49.878  14.199  22.971  0.00  0.00     0.021 A 
ATOM     13  C   UNL d   1     -48.833  15.397  22.570  0.00  0.00     0.021 A 
ATOM     14  C   UNL d   1     -47.175  11.151  23.698  0.00  0.00     0.000 A 
ATOM     15  C   UNL d   1     -46.375  11.334  23.602  0.00  0.00     0.002 A 
ATOM     16  C   UNL d   1     -50.166  14.941  22.773  0.00  0.00     0.002 A 
ATOM     17  C   UNL d   1     -49.642  15.544  22.572  0.00  0.00     0.002 A 
ENDROOT
TORSDOF 0
ENDMDL
MODEL 4
REMARK VINA RESULT:      -8.5      1.359      2.312
REMARK  0 active torsions:
REMARK  status: ('A' for Active; 'I' for Inactive)
ROOT
ATOM      1  C   UNL d   1     -47.760  13.983  22.923  0.00  0.00     0.180 A 
ATOM      2  C   UNL d   1     -48.464  13.582  23.108  0.00  0.00     0.118 A 
ATOM      3  N   UNL d   1     -48.446  12.798  23.345  0.00  0.00    -0.241 NA
ATOM      4  N   UNL d   1     -47.955  14.755  22.705  0.00  0.00    -0.225 NA
ATOM      5  N   UNL d   1     -47.042  13.585  22.982  0.00  0.00    -0.224 NA
ATOM      6  C   UNL d   1     -49.090  14.113  23.000  0.00  0.00     0.038 A 
ATOM      7  C   UNL d   1     -48.779  14.838  22.752  0.00  0.00     0.085 A 
ATOM      8  C   UNL d   1     -47.724  12.407  23.401  0.00  0.00     0.099 A 
ATOM      9  C   UNL d   1     -47.023  12.802  23.219  0.00  0.00     0.101 A 
ATOM     10  C   UNL d   1     -49.908  14.027  23.098  0.00  0.00     0.003 A 
ATOM     11  C   UNL d   1     -49.282  15.484  22.599  0.00  0.00     0.019 A 
ATOM     12  C   UNL d   1     -47.699  11.621  23.639  0.00  0.00     0.021 A 
ATOM     13  C   UNL d   1     -46.307  12.409  23.276  0.00  0.00     0.021 A 
ATOM     14  C   UNL d   1     -50.408  14.671  22.946  0.00  0.00     0.000 A 
ATOM     15  C   UNL d   1     -50.097  15.395  22.698  0.00  0.00     0.002 A 
ATOM     16  C   UNL d   1     -46.981  11.228  23.696  0.00  0.00     0.002 A 
ATOM     17  C   UNL d   1     -46.281  11.622  23.514  0.00  0.00     0.002 A 
ENDROOT
TORSDOF 0
ENDMDL
MODEL 5
REMARK VINA RESULT:      -8.5      1.256      3.481
REMARK  0 active torsions:
REMARK  status: ('A' for Active; 'I' for Inactive)
ROOT
ATOM      1  C   UNL d   1     -48.671  13.350  23.169  0.00  0.00     0.180 A 
ATOM      2  C   UNL d   1     -48.240  14.049  23.038  0.00  0.00     0.118 A 
ATOM      3  N   UNL d   1     -48.616  14.776  23.047  0.00  0.00    -0.241 NA
ATOM      4  N   UNL d   1     -48.147  12.714  23.127  0.00  0.00    -0.225 NA
ATOM      5  N   UNL d   1     -49.482  13.396  23.307  0.00  0.00    -0.224 NA
ATOM      6  C   UNL d   1     -47.450  13.835  22.917  0.00  0.00     0.038 A 
ATOM      7  C   UNL d   1     -47.389  13.012  22.971  0.00  0.00     0.085 A 
ATOM      8  C   UNL d   1     -49.426  14.814  23.185  0.00  0.00     0.099 A 
ATOM      9  C   UNL d   1     -49.857  14.123  23.315  0.00  0.00     0.101 A 
ATOM     10  C   UNL d   1     -46.775  14.289  22.763  0.00  0.00     0.003 A 
ATOM     11  C   UNL d   1     -46.653  12.636  22.872  0.00  0.00     0.019 A 
ATOM     12  C   UNL d   1     -49.809  15.541  23.195  0.00  0.00     0.021 A 
ATOM     13  C   UNL d   1     -50.664  14.165  23.453  0.00  0.00     0.021 A 
ATOM     14  C   UNL d   1     -46.042  13.913  22.664  0.00  0.00     0.000 A 
ATOM     15  C   UNL d   1     -45.982  13.091  22.719  0.00  0.00     0.002 A 
ATOM     16  C   UNL d   1     -50.617  15.583  23.333  0.00  0.00     0.002 A 
ATOM     17  C   UNL d   1     -51.047  14.892  23.463  0.00  0.00     0.002 A 
ENDROOT
TORSDOF 0
ENDMDL
MODEL 6
REMARK VINA RESULT:      -7.1      1.213      3.522
REMARK  0 active torsions:
REMARK  status: ('A' for Active; 'I' for Inactive)
ROOT
ATOM      1  C   UNL d   1     -48.219  12.847  21.981  0.00  0.00     0.180 A 
ATOM      2  C   UNL d   1     -48.184  13.305  22.674  0.00  0.00     0.118 A 
ATOM      3  N   UNL d   1     -48.870  13.558  23.040  0.00  0.00    -0.241 NA
ATOM      4  N   UNL d   1     -47.446  12.679  21.745  0.00  0.00    -0.225 NA
ATOM      5  N   UNL d   1     -48.954  12.650  21.665  0.00  0.00    -0.224 NA
ATOM      6  C   UNL d   1     -47.384  13.415  22.859  0.00  0.00     0.038 A 
ATOM      7  C   UNL d   1     -46.927  13.030  22.287  0.00  0.00     0.085 A 
ATOM      8  C   UNL d   1     -49.601  13.357  22.719  0.00  0.00     0.099 A 
ATOM      9  C   UNL d   1     -49.641  12.904  22.032  0.00  0.00     0.101 A 
ATOM     10  C   UNL d   1     -47.014  13.819  23.480  0.00  0.00     0.003 A 
ATOM     11  C   UNL d   1     -46.095  13.045  22.331  0.00  0.00     0.019 A 
ATOM     12  C   UNL d   1     -50.294  13.608  23.082  0.00  0.00     0.021 A 
ATOM     13  C   UNL d   1     -50.370  12.706  21.715  0.00  0.00     0.021 A 
ATOM     14  C   UNL d   1     -46.186  13.834  23.522  0.00  0.00     0.000 A 
ATOM     15  C   UNL d   1     -45.729  13.449  22.951  0.00  0.00     0.002 A 
ATOM     16  C   UNL d   1     -51.024  13.410  22.765  0.00  0.00     0.002 A 
ATOM     17  C   UNL d   1     -51.063  12.957  22.078  0.00  0.00     0.002 A 
ENDROOT
TORSDOF 0
ENDMDL
MODEL 7
REMARK VINA RESULT:      -6.6      2.007      3.485
REMARK  0 active torsions:
REMARK  status: ('A' for Active; 'I' for Inactive)
ROOT
ATOM      1  C   UNL d   1     -45.387  12.578  22.727  0.00  0.00     0.180 A 
ATOM      2  C   UNL d   1     -46.038  12.201  23.080  0.00  0.00     0.118 A 
ATOM      3  N   UNL d   1     -45.960  11.452  23.402  0.00  0.00    -0.241 NA
ATOM      4  N   UNL d   1     -45.635  13.317  22.456  0.00  0.00    -0.225 NA
ATOM      5  N   UNL d   1     -44.660  12.192  22.704  0.00  0.00    -0.224 NA
ATOM      6  C   UNL d   1     -46.685  12.714  23.022  0.00  0.00     0.038 A 
ATOM      7  C   UNL d   1     -46.440  13.404  22.638  0.00  0.00     0.085 A 
ATOM      8  C   UNL d   1     -45.230  11.072  23.376  0.00  0.00     0.099 A 
ATOM      9  C   UNL d   1     -44.582  11.443  23.026  0.00  0.00     0.101 A 
ATOM     10  C   UNL d   1     -47.471  12.638  23.274  0.00  0.00     0.003 A 
ATOM     11  C   UNL d   1     -46.977  14.025  22.501  0.00  0.00     0.019 A 
ATOM     12  C   UNL d   1     -45.145  10.321  23.697  0.00  0.00     0.021 A 
ATOM     13  C   UNL d   1     -43.857  11.062  23.002  0.00  0.00     0.021 A 
ATOM     14  C   UNL d   1     -48.005  13.258  23.136  0.00  0.00     0.000 A 
ATOM     15  C   UNL d   1     -47.760  13.947  22.752  0.00  0.00     0.002 A 
ATOM     16  C   UNL d   1     -44.419   9.939  23.673  0.00  0.00     0.002 A 
ATOM     17  C   UNL d   1     -43.772  10.310  23.324  0.00  0.00     0.002 A 
ENDROOT
TORSDOF 0
ENDMDL
MODEL 8
REMARK VINA RESULT:      -6.4      8.347     10.373
REMARK  0 active torsions:
REMARK  status: ('A' for Active; 'I' for Inactive)
ROOT
ATOM      1  C   UNL d   1     -40.060  14.128  18.502  0.00  0.00     0.180 A 
ATOM      2  C   UNL d   1     -39.775  14.897  18.365  0.00  0.00     0.118 A 
ATOM      3  N   UNL d   1     -39.910  15.493  18.910  0.00  0.00    -0.241 NA
ATOM      4  N   UNL d   1     -39.839  13.656  17.861  0.00  0.00    -0.225 NA
ATOM      5  N   UNL d   1     -40.480  13.970  19.192  0.00  0.00    -0.224 NA
ATOM      6  C   UNL d   1     -39.380  14.891  17.638  0.00  0.00     0.038 A 
ATOM      7  C   UNL d   1     -39.418  14.126  17.325  0.00  0.00     0.085 A 
ATOM      8  C   UNL d   1     -40.331  15.327  19.598  0.00  0.00     0.099 A 
ATOM      9  C   UNL d   1     -40.615  14.566  19.737  0.00  0.00     0.101 A 
ATOM     10  C   UNL d   1     -38.989  15.489  17.220  0.00  0.00     0.003 A 
ATOM     11  C   UNL d   1     -39.065  13.953  16.591  0.00  0.00     0.019 A 
ATOM     12  C   UNL d   1     -40.469  15.921  20.149  0.00  0.00     0.021 A 
ATOM     13  C   UNL d   1     -41.033  14.405  20.423  0.00  0.00     0.021 A 
ATOM     14  C   UNL d   1     -38.637  15.315  16.489  0.00  0.00     0.000 A 
ATOM     15  C   UNL d   1     -38.675  14.551  16.176  0.00  0.00     0.002 A 
ATOM     16  C   UNL d   1     -40.888  15.760  20.836  0.00  0.00     0.002 A 
ATOM     17  C   UNL d   1     -41.172  14.999  20.975  0.00  0.00     0.002 A 
ENDROOT
TORSDOF 0
ENDMDL
MODEL 9
REMARK VINA RESULT:      -6.4      8.391     10.085
REMARK  0 active torsions:
REMARK  status: ('A' for Active; 'I' for Inactive)
ROOT
ATOM      1  C   UNL d   1     -40.032  14.076  18.694  0.00  0.00     0.180 A 
ATOM      2  C   UNL d   1     -40.020  14.906  18.733  0.00  0.00     0.118 A 
ATOM      3  N   UNL d   1     -39.672  15.345  18.136  0.00  0.00    -0.241 NA
ATOM      4  N   UNL d   1     -40.416  13.793  19.368  0.00  0.00    -0.225 NA
ATOM      5  N   UNL d   1     -39.690  13.697  18.047  0.00  0.00    -0.224 NA
ATOM      6  C   UNL d   1     -40.399  15.128  19.435  0.00  0.00     0.038 A 
ATOM      7  C   UNL d   1     -40.644  14.443  19.829  0.00  0.00     0.085 A 
ATOM      8  C   UNL d   1     -39.332  14.960  17.494  0.00  0.00     0.099 A 
ATOM      9  C   UNL d   1     -39.342  14.136  17.450  0.00  0.00     0.101 A 
ATOM     10  C   UNL d   1     -40.551  15.871  19.766  0.00  0.00     0.003 A 
ATOM     11  C   UNL d   1     -41.045  14.496  20.557  0.00  0.00     0.019 A 
ATOM     12  C   UNL d   1     -38.981  15.395  16.891  0.00  0.00     0.021 A 
ATOM     13  C   UNL d   1     -39.002  13.757  16.809  0.00  0.00     0.021 A 
ATOM     14  C   UNL d   1     -40.951  15.922  20.491  0.00  0.00     0.000 A 
ATOM     15  C   UNL d   1     -41.196  15.238  20.884  0.00  0.00     0.002 A 
ATOM     16  C   UNL d   1     -38.641  15.014  16.248  0.00  0.00     0.002 A 
ATOM     17  C   UNL d   1     -38.651  14.191  16.206  0.00  0.00     0.002 A 
ENDROOT
TORSDOF 0
ENDMDL
