MODEL 1
REMARK VINA RESULT:      -2.2      0.000      0.000
REMARK  3 active torsions:
REMARK  status: ('A' for Active; 'I' for Inactive)
REMARK    1  A    between atoms: C_10  and  C_4 
REMARK    2  A    between atoms: C_11  and  C_6 
REMARK    3  A    between atoms: C_12  and  C_9 
ROOT
ATOM      1  N   UNL d   1      58.827  -1.615  29.519  0.00  0.00    -0.212 N 
ATOM      2  C   UNL d   1      58.183  -1.982  29.899  0.00  0.00     0.166 A 
ATOM      3  N   UNL d   1      59.181  -2.167  29.019  0.00  0.00    -0.158 NA
ATOM      4  C   UNL d   1      58.753  -2.880  29.091  0.00  0.00     0.169 A 
ATOM      5  C   UNL d   1      58.150  -2.754  29.628  0.00  0.00     0.066 A 
ATOM      6  C   UNL d   1      59.002  -0.823  29.682  0.00  0.00     0.086 A 
ATOM      7  N   UNL d   1      57.718  -1.555  30.441  0.00  0.00    -0.227 NA
ATOM      8  C   UNL d   1      58.543  -0.387  30.222  0.00  0.00     0.038 A 
ATOM      9  C   UNL d   1      57.899  -0.754  30.603  0.00  0.00     0.085 A 
ENDROOT
BRANCH   6  10
ATOM     10  C   UNL d   1      59.593  -0.314  29.399  0.00  0.00     0.018 A 
ATOM     11  C   UNL d   1      59.436   0.161  28.746  0.00  0.00     0.002 A 
ATOM     12  C   UNL d   1      59.979   0.637  28.475  0.00  0.00     0.000 A 
ATOM     13  C   UNL d   1      60.750   0.682  28.842  0.00  0.00     0.000 A 
ATOM     14  C   UNL d   1      60.926   0.228  29.479  0.00  0.00     0.000 A 
ATOM     15  C   UNL d   1      60.337  -0.277  29.760  0.00  0.00     0.002 A 
ENDBRANCH   6  10
BRANCH   9  16
ATOM     16  C   UNL d   1      57.438  -0.346  31.134  0.00  0.00     0.018 A 
ATOM     17  C   UNL d   1      56.976   0.288  30.893  0.00  0.00     0.002 A 
ATOM     18  C   UNL d   1      56.525   0.682  31.433  0.00  0.00     0.000 A 
ATOM     19  C   UNL d   1      56.509   0.464  32.251  0.00  0.00     0.000 A 
ATOM     20  C   UNL d   1      56.971  -0.170  32.492  0.00  0.00     0.000 A 
ATOM     21  C   UNL d   1      57.440  -0.581  31.936  0.00  0.00     0.002 A 
ENDBRANCH   9  16
BRANCH   4  22
ATOM     22  C   UNL d   1      58.914  -3.576  28.692  0.00  0.00     0.231 C 
ATOM     23  O   UNL d   1      58.295  -4.090  28.515  0.00  0.00    -0.643 OA
ATOM     24  O   UNL d   1      59.696  -3.744  28.478  0.00  0.00    -0.643 OA
ENDBRANCH   4  22
TORSDOF 3
ENDMDL
