MODEL 1
REMARK VINA RESULT:      26.6      0.000      0.000
REMARK  4 active torsions:
REMARK  status: ('A' for Active; 'I' for Inactive)
REMARK       I    between atoms: N_2  and  C_1 
REMARK    1  A    between atoms: O_3  and  C_1 
REMARK    2  A    between atoms: C_5  and  O_3 
REMARK    3  A    between atoms: O_8  and  C_7 
REMARK    4  A    between atoms: C_10  and  O_8 
ROOT
ATOM      1  C   UNL d   1      14.662  13.361  -1.309  0.00  0.00     0.107 A 
ATOM      2  C   UNL d   1      14.373  12.951  -1.965  0.00  0.00     0.050 A 
ATOM      3  C   UNL d   1      14.067  12.189  -1.875  0.00  0.00     0.102 A 
ATOM      4  C   UNL d   1      14.337  12.245  -0.474  0.00  0.00     0.004 A 
ATOM      5  C   UNL d   1      14.644  13.007  -0.564  0.00  0.00     0.025 A 
ATOM      6  C   UNL d   1      14.049  11.836  -1.130  0.00  0.00     0.025 A 
ENDROOT
BRANCH   1   7
ATOM      7  O   UNL d   1      14.969  14.123  -1.399  0.00  0.00    -0.259 OA
BRANCH   7   8
ATOM      8  C   UNL d   1      15.210  14.564  -0.750  0.00  0.00     0.378 C 
ATOM      9  N   UNL d   1      15.305  15.392  -0.800  0.00  0.00    -0.247 N 
ATOM     10  C   UNL d   1      15.151  15.775  -1.523  0.00  0.00     0.112 A 
ATOM     11  C   UNL d   1      15.549  15.826  -0.139  0.00  0.00     0.112 A 
ATOM     12  C   UNL d   1      15.243  16.594  -1.580  0.00  0.00     0.142 A 
ATOM     13  O   UNL d   1      15.487  17.036  -0.925  0.00  0.00    -0.300 OA
ATOM     14  C   UNL d   1      15.641  16.645  -0.197  0.00  0.00     0.142 A 
ATOM     15  O   UNL d   1      15.365  14.161  -0.014  0.00  0.00    -0.237 OA
ENDBRANCH   7   8
ENDBRANCH   1   7
BRANCH   3  16
ATOM     16  O   UNL d   1      13.778  11.780  -2.531  0.00  0.00    -0.307 OA
BRANCH  16  17
ATOM     17  C   UNL d   1      13.495  12.196  -3.187  0.00  0.00     0.100 A 
ATOM     18  C   UNL d   1      13.173  12.949  -3.090  0.00  0.00     0.025 A 
ATOM     19  C   UNL d   1      12.890  13.365  -3.747  0.00  0.00     0.002 A 
ATOM     20  C   UNL d   1      12.930  13.028  -4.498  0.00  0.00     0.000 A 
ATOM     21  C   UNL d   1      13.256  12.270  -4.587  0.00  0.00     0.002 A 
ATOM     22  C   UNL d   1      13.535  11.859  -3.938  0.00  0.00     0.025 A 
ENDBRANCH  16  17
ENDBRANCH   3  16
TORSDOF 4
ENDMDL
MODEL 2
REMARK VINA RESULT:      28.2      1.695      3.163
REMARK  4 active torsions:
REMARK  status: ('A' for Active; 'I' for Inactive)
REMARK       I    between atoms: N_2  and  C_1 
REMARK    1  A    between atoms: O_3  and  C_1 
REMARK    2  A    between atoms: C_5  and  O_3 
REMARK    3  A    between atoms: O_8  and  C_7 
REMARK    4  A    between atoms: C_10  and  O_8 
ROOT
ATOM      1  C   UNL d   1      13.246  13.431  -3.484  0.00  0.00     0.107 A 
ATOM      2  C   UNL d   1      13.739  13.019  -2.966  0.00  0.00     0.050 A 
ATOM      3  C   UNL d   1      13.770  12.193  -2.991  0.00  0.00     0.102 A 
ATOM      4  C   UNL d   1      12.814  12.190  -4.052  0.00  0.00     0.004 A 
ATOM      5  C   UNL d   1      12.784  13.016  -4.027  0.00  0.00     0.025 A 
ATOM      6  C   UNL d   1      13.307  11.779  -3.534  0.00  0.00     0.025 A 
ENDROOT
BRANCH   1   7
ATOM      7  O   UNL d   1      13.216  14.256  -3.459  0.00  0.00    -0.259 OA
BRANCH   7   8
ATOM      8  C   UNL d   1      13.628  14.714  -4.002  0.00  0.00     0.378 C 
ATOM      9  N   UNL d   1      14.113  15.348  -3.756  0.00  0.00    -0.247 N 
ATOM     10  C   UNL d   1      14.178  15.515  -2.943  0.00  0.00     0.112 A 
ATOM     11  C   UNL d   1      14.523  15.802  -4.313  0.00  0.00     0.112 A 
ATOM     12  C   UNL d   1      14.657  16.141  -2.691  0.00  0.00     0.142 A 
ATOM     13  O   UNL d   1      15.070  16.600  -3.241  0.00  0.00    -0.300 OA
ATOM     14  C   UNL d   1      15.000  16.427  -4.060  0.00  0.00     0.142 A 
ATOM     15  O   UNL d   1      13.553  14.533  -4.832  0.00  0.00    -0.237 OA
ENDBRANCH   7   8
ENDBRANCH   1   7
BRANCH   3  16
ATOM     16  O   UNL d   1      14.262  11.782  -2.473  0.00  0.00    -0.307 OA
BRANCH  16  17
ATOM     17  C   UNL d   1      14.272  11.976  -1.669  0.00  0.00     0.100 A 
ATOM     18  C   UNL d   1      14.923  12.366  -1.346  0.00  0.00     0.025 A 
ATOM     19  C   UNL d   1      14.933  12.560  -0.542  0.00  0.00     0.002 A 
ATOM     20  C   UNL d   1      14.291  12.364  -0.062  0.00  0.00     0.000 A 
ATOM     21  C   UNL d   1      13.640  11.972  -0.394  0.00  0.00     0.002 A 
ATOM     22  C   UNL d   1      13.631  11.780  -1.189  0.00  0.00     0.025 A 
ENDBRANCH  16  17
ENDBRANCH   3  16
TORSDOF 4
ENDMDL
