MODEL 1
REMARK VINA RESULT:      -6.7      0.000      0.000
REMARK  6 active torsions:
REMARK  status: ('A' for Active; 'I' for Inactive)
REMARK    1  A    between atoms: C_5  and  N_1 
REMARK    2  A    between atoms: C_7  and  C_3 
REMARK    3  A    between atoms: C_12  and  C_4 
REMARK    4  A    between atoms: N_14  and  C_5 
REMARK    5  A    between atoms: O_16  and  C_9 
REMARK    6  A    between atoms: O_17  and  C_11 
ROOT
ATOM      1  N   UNL d   1      52.431  33.711  53.283  0.00  0.00    -0.203 N 
ATOM      2  N   UNL d   1      52.930  33.056  53.355  0.00  0.00    -0.163 NA
ATOM      3  C   UNL d   1      51.679  33.429  53.114  0.00  0.00     0.087 A 
ATOM      4  C   UNL d   1      52.497  32.388  53.232  0.00  0.00     0.103 A 
ATOM      5  C   UNL d   1      51.726  32.610  53.083  0.00  0.00     0.040 A 
ENDROOT
BRANCH   3   6
ATOM      6  C   UNL d   1      50.990  33.878  52.993  0.00  0.00     0.020 A 
ATOM      7  C   UNL d   1      50.731  34.075  52.250  0.00  0.00     0.028 A 
ATOM      8  C   UNL d   1      50.053  34.517  52.136  0.00  0.00     0.116 A 
ATOM      9  C   UNL d   1      49.627  34.766  52.778  0.00  0.00     0.116 A 
ATOM     10  C   UNL d   1      49.875  34.575  53.541  0.00  0.00     0.026 A 
ATOM     11  C   UNL d   1      50.554  34.133  53.655  0.00  0.00     0.004 A 
BRANCH   8  12
ATOM     12  O   UNL d   1      49.783  34.722  51.377  0.00  0.00    -0.326 OA
ATOM     13  C   UNL d   1      49.656  34.132  50.808  0.00  0.00     0.181 C 
ENDBRANCH   8  12
BRANCH   9  14
ATOM     14  O   UNL d   1      48.929  35.220  52.674  0.00  0.00    -0.326 OA
ATOM     15  C   UNL d   1      48.593  35.643  53.293  0.00  0.00     0.181 C 
ENDBRANCH   9  14
ENDBRANCH   3   6
BRANCH   1  16
ATOM     16  C   UNL d   1      52.662  34.506  53.371  0.00  0.00     0.222 C 
ATOM     17  S   UNL d   1      52.920  34.957  52.715  0.00  0.00    -0.037 SA
BRANCH  16  18
ATOM     18  N   UNL d   1      52.640  34.878  54.129  0.00  0.00    -0.214 NA
ATOM     19  C   UNL d   1      53.185  35.494  54.294  0.00  0.00     0.122 C 
ENDBRANCH  16  18
ENDBRANCH   1  16
BRANCH   4  20
ATOM     20  C   UNL d   1      52.825  31.623  53.262  0.00  0.00     0.019 A 
ATOM     21  C   UNL d   1      52.484  31.014  52.842  0.00  0.00     0.002 A 
ATOM     22  C   UNL d   1      52.800  30.238  52.861  0.00  0.00     0.000 A 
ATOM     23  C   UNL d   1      53.484  30.095  53.324  0.00  0.00     0.000 A 
ATOM     24  C   UNL d   1      53.824  30.734  53.750  0.00  0.00     0.000 A 
ATOM     25  C   UNL d   1      53.502  31.484  53.721  0.00  0.00     0.002 A 
ENDBRANCH   4  20
TORSDOF 6
ENDMDL
MODEL 2
REMARK VINA RESULT:      -6.3      2.294      4.502
REMARK  6 active torsions:
REMARK  status: ('A' for Active; 'I' for Inactive)
REMARK    1  A    between atoms: C_5  and  N_1 
REMARK    2  A    between atoms: C_7  and  C_3 
REMARK    3  A    between atoms: C_12  and  C_4 
REMARK    4  A    between atoms: N_14  and  C_5 
REMARK    5  A    between atoms: O_16  and  C_9 
REMARK    6  A    between atoms: O_17  and  C_11 
ROOT
ATOM      1  N   UNL d   1      53.194  32.799  53.632  0.00  0.00    -0.203 N 
ATOM      2  N   UNL d   1      52.746  33.448  53.383  0.00  0.00    -0.163 NA
ATOM      3  C   UNL d   1      52.724  32.132  53.551  0.00  0.00     0.087 A 
ATOM      4  C   UNL d   1      52.019  33.186  53.155  0.00  0.00     0.103 A 
ATOM      5  C   UNL d   1      51.999  32.376  53.256  0.00  0.00     0.040 A 
ENDROOT
BRANCH   3   6
ATOM      6  C   UNL d   1      52.932  31.347  53.732  0.00  0.00     0.020 A 
ATOM      7  C   UNL d   1      53.034  30.787  53.155  0.00  0.00     0.028 A 
ATOM      8  C   UNL d   1      53.239  30.016  53.337  0.00  0.00     0.116 A 
ATOM      9  C   UNL d   1      53.342  29.804  54.112  0.00  0.00     0.116 A 
ATOM     10  C   UNL d   1      53.243  30.360  54.712  0.00  0.00     0.026 A 
ATOM     11  C   UNL d   1      53.038  31.131  54.529  0.00  0.00     0.004 A 
BRANCH   8  12
ATOM     12  O   UNL d   1      53.345  29.438  52.749  0.00  0.00    -0.326 OA
ATOM     13  C   UNL d   1      52.956  29.511  52.019  0.00  0.00     0.181 C 
ENDBRANCH   8  12
BRANCH   9  14
ATOM     14  O   UNL d   1      53.552  29.016  54.311  0.00  0.00    -0.326 OA
ATOM     15  C   UNL d   1      53.445  28.721  55.070  0.00  0.00     0.181 C 
ENDBRANCH   9  14
ENDBRANCH   3   6
BRANCH   1  16
ATOM     16  C   UNL d   1      53.978  32.832  53.912  0.00  0.00     0.222 C 
ATOM     17  S   UNL d   1      54.626  32.701  53.401  0.00  0.00    -0.037 SA
BRANCH  16  18
ATOM     18  N   UNL d   1      54.135  32.999  54.725  0.00  0.00    -0.214 NA
ATOM     19  C   UNL d   1      54.824  33.438  54.922  0.00  0.00     0.122 C 
ENDBRANCH  16  18
ENDBRANCH   1  16
BRANCH   4  20
ATOM     20  C   UNL d   1      51.423  33.694  52.871  0.00  0.00     0.019 A 
ATOM     21  C   UNL d   1      50.812  33.920  53.359  0.00  0.00     0.002 A 
ATOM     22  C   UNL d   1      50.204  34.431  53.091  0.00  0.00     0.000 A 
ATOM     23  C   UNL d   1      50.233  34.710  52.301  0.00  0.00     0.000 A 
ATOM     24  C   UNL d   1      50.871  34.467  51.811  0.00  0.00     0.000 A 
ATOM     25  C   UNL d   1      51.455  33.969  52.089  0.00  0.00     0.002 A 
ENDBRANCH   4  20
TORSDOF 6
ENDMDL
MODEL 3
REMARK VINA RESULT:      -6.3      1.836      2.569
REMARK  6 active torsions:
REMARK  status: ('A' for Active; 'I' for Inactive)
REMARK    1  A    between atoms: C_5  and  N_1 
REMARK    2  A    between atoms: C_7  and  C_3 
REMARK    3  A    between atoms: C_12  and  C_4 
REMARK    4  A    between atoms: N_14  and  C_5 
REMARK    5  A    between atoms: O_16  and  C_9 
REMARK    6  A    between atoms: O_17  and  C_11 
ROOT
ATOM      1  N   UNL d   1      54.158  32.388  53.760  0.00  0.00    -0.203 N 
ATOM      2  N   UNL d   1      54.175  31.562  53.710  0.00  0.00    -0.163 NA
ATOM      3  C   UNL d   1      53.378  32.610  53.883  0.00  0.00     0.087 A 
ATOM      4  C   UNL d   1      53.424  31.284  53.799  0.00  0.00     0.103 A 
ATOM      5  C   UNL d   1      52.928  31.924  53.906  0.00  0.00     0.040 A 
ENDROOT
BRANCH   3   6
ATOM      6  C   UNL d   1      53.084  33.383  53.969  0.00  0.00     0.020 A 
ATOM      7  C   UNL d   1      52.668  33.752  53.379  0.00  0.00     0.028 A 
ATOM      8  C   UNL d   1      52.381  34.512  53.468  0.00  0.00     0.116 A 
ATOM      9  C   UNL d   1      52.513  34.909  54.162  0.00  0.00     0.116 A 
ATOM     10  C   UNL d   1      52.934  34.549  54.773  0.00  0.00     0.026 A 
ATOM     11  C   UNL d   1      53.221  33.789  54.683  0.00  0.00     0.004 A 
BRANCH   8  12
ATOM     12  O   UNL d   1      51.954  34.895  52.866  0.00  0.00    -0.326 OA
ATOM     13  C   UNL d   1      51.588  34.451  52.269  0.00  0.00     0.181 C 
ENDBRANCH   8  12
BRANCH   9  14
ATOM     14  O   UNL d   1      52.223  35.690  54.265  0.00  0.00    -0.326 OA
ATOM     15  C   UNL d   1      52.545  36.199  54.824  0.00  0.00     0.181 C 
ENDBRANCH   9  14
ENDBRANCH   3   6
BRANCH   1  16
ATOM     16  C   UNL d   1      54.820  32.889  53.696  0.00  0.00     0.222 C 
ATOM     17  S   UNL d   1      55.185  33.213  54.375  0.00  0.00    -0.037 SA
BRANCH  16  18
ATOM     18  N   UNL d   1      55.139  33.083  52.938  0.00  0.00    -0.214 NA
ATOM     19  C   UNL d   1      55.934  33.347  52.889  0.00  0.00     0.122 C 
ENDBRANCH  16  18
ENDBRANCH   1  16
BRANCH   4  20
ATOM     20  C   UNL d   1      53.236  30.473  53.779  0.00  0.00     0.019 A 
ATOM     21  C   UNL d   1      52.857  30.157  53.130  0.00  0.00     0.002 A 
ATOM     22  C   UNL d   1      52.660  29.343  53.092  0.00  0.00     0.000 A 
ATOM     23  C   UNL d   1      52.862  28.851  53.739  0.00  0.00     0.000 A 
ATOM     24  C   UNL d   1      53.253  29.192  54.399  0.00  0.00     0.000 A 
ATOM     25  C   UNL d   1      53.437  29.987  54.421  0.00  0.00     0.002 A 
ENDBRANCH   4  20
TORSDOF 6
ENDMDL
MODEL 4
REMARK VINA RESULT:      -5.8      2.500      4.534
REMARK  6 active torsions:
REMARK  status: ('A' for Active; 'I' for Inactive)
REMARK    1  A    between atoms: C_5  and  N_1 
REMARK    2  A    between atoms: C_7  and  C_3 
REMARK    3  A    between atoms: C_12  and  C_4 
REMARK    4  A    between atoms: N_14  and  C_5 
REMARK    5  A    between atoms: O_16  and  C_9 
REMARK    6  A    between atoms: O_17  and  C_11 
ROOT
ATOM      1  N   UNL d   1      52.248  32.497  53.177  0.00  0.00    -0.203 N 
ATOM      2  N   UNL d   1      51.556  32.712  52.778  0.00  0.00    -0.163 NA
ATOM      3  C   UNL d   1      52.585  33.185  53.471  0.00  0.00     0.087 A 
ATOM      4  C   UNL d   1      51.470  33.512  52.826  0.00  0.00     0.103 A 
ATOM      5  C   UNL d   1      52.100  33.809  53.251  0.00  0.00     0.040 A 
ENDROOT
BRANCH   3   6
ATOM      6  C   UNL d   1      53.287  33.251  53.912  0.00  0.00     0.020 A 
ATOM      7  C   UNL d   1      54.018  33.181  53.568  0.00  0.00     0.028 A 
ATOM      8  C   UNL d   1      54.706  33.247  54.005  0.00  0.00     0.116 A 
ATOM      9  C   UNL d   1      54.659  33.386  54.802  0.00  0.00     0.116 A 
ATOM     10  C   UNL d   1      53.925  33.460  55.169  0.00  0.00     0.026 A 
ATOM     11  C   UNL d   1      53.237  33.394  54.731  0.00  0.00     0.004 A 
BRANCH   8  12
ATOM     12  O   UNL d   1      55.457  33.176  53.657  0.00  0.00    -0.326 OA
ATOM     13  C   UNL d   1      55.559  33.342  52.851  0.00  0.00     0.181 C 
ENDBRANCH   8  12
BRANCH   9  14
ATOM     14  O   UNL d   1      55.359  33.455  55.261  0.00  0.00    -0.326 OA
ATOM     15  C   UNL d   1      55.345  33.766  56.021  0.00  0.00     0.181 C 
ENDBRANCH   9  14
ENDBRANCH   3   6
BRANCH   1  16
ATOM     16  C   UNL d   1      52.538  31.721  53.258  0.00  0.00     0.222 C 
ATOM     17  S   UNL d   1      52.445  31.296  53.973  0.00  0.00    -0.037 SA
BRANCH  16  18
ATOM     18  N   UNL d   1      52.935  31.343  52.615  0.00  0.00    -0.214 NA
ATOM     19  C   UNL d   1      52.963  30.504  52.593  0.00  0.00     0.122 C 
ENDBRANCH  16  18
ENDBRANCH   1  16
BRANCH   4  20
ATOM     20  C   UNL d   1      50.830  33.920  52.483  0.00  0.00     0.019 A 
ATOM     21  C   UNL d   1      50.233  34.214  52.953  0.00  0.00     0.002 A 
ATOM     22  C   UNL d   1      49.581  34.627  52.625  0.00  0.00     0.000 A 
ATOM     23  C   UNL d   1      49.550  34.734  51.795  0.00  0.00     0.000 A 
ATOM     24  C   UNL d   1      50.173  34.424  51.325  0.00  0.00     0.000 A 
ATOM     25  C   UNL d   1      50.801  34.024  51.660  0.00  0.00     0.002 A 
ENDBRANCH   4  20
TORSDOF 6
ENDMDL
MODEL 5
REMARK VINA RESULT:      -5.8      1.673      2.838
REMARK  6 active torsions:
REMARK  status: ('A' for Active; 'I' for Inactive)
REMARK    1  A    between atoms: C_5  and  N_1 
REMARK    2  A    between atoms: C_7  and  C_3 
REMARK    3  A    between atoms: C_12  and  C_4 
REMARK    4  A    between atoms: N_14  and  C_5 
REMARK    5  A    between atoms: O_16  and  C_9 
REMARK    6  A    between atoms: O_17  and  C_11 
ROOT
ATOM      1  N   UNL d   1      52.678  32.592  53.413  0.00  0.00    -0.203 N 
ATOM      2  N   UNL d   1      53.361  32.577  53.880  0.00  0.00    -0.163 NA
ATOM      3  C   UNL d   1      52.464  33.379  53.318  0.00  0.00     0.087 A 
ATOM      4  C   UNL d   1      53.561  33.335  54.067  0.00  0.00     0.103 A 
ATOM      5  C   UNL d   1      53.013  33.833  53.725  0.00  0.00     0.040 A 
ENDROOT
BRANCH   3   6
ATOM      6  C   UNL d   1      51.814  33.674  52.892  0.00  0.00     0.020 A 
ATOM      7  C   UNL d   1      51.119  33.878  53.257  0.00  0.00     0.028 A 
ATOM      8  C   UNL d   1      50.482  34.168  52.833  0.00  0.00     0.116 A 
ATOM      9  C   UNL d   1      50.543  34.254  52.031  0.00  0.00     0.116 A 
ATOM     10  C   UNL d   1      51.243  34.052  51.643  0.00  0.00     0.026 A 
ATOM     11  C   UNL d   1      51.879  33.762  52.066  0.00  0.00     0.004 A 
BRANCH   8  12
ATOM     12  O   UNL d   1      49.768  34.379  53.202  0.00  0.00    -0.326 OA
ATOM     13  C   UNL d   1      49.737  35.041  53.701  0.00  0.00     0.181 C 
ENDBRANCH   8  12
BRANCH   9  14
ATOM     14  O   UNL d   1      49.896  34.551  51.586  0.00  0.00    -0.326 OA
ATOM     15  C   UNL d   1      49.812  34.385  50.786  0.00  0.00     0.181 C 
ENDBRANCH   9  14
ENDBRANCH   3   6
BRANCH   1  16
ATOM     16  C   UNL d   1      52.290  31.925  53.102  0.00  0.00     0.222 C 
ATOM     17  S   UNL d   1      51.569  31.652  53.427  0.00  0.00    -0.037 SA
BRANCH  16  18
ATOM     18  N   UNL d   1      52.619  31.504  52.447  0.00  0.00    -0.214 NA
ATOM     19  C   UNL d   1      52.680  30.668  52.491  0.00  0.00     0.122 C 
ENDBRANCH  16  18
ENDBRANCH   1  16
BRANCH   4  20
ATOM     20  C   UNL d   1      54.224  33.525  54.535  0.00  0.00     0.019 A 
ATOM     21  C   UNL d   1      54.163  33.531  55.347  0.00  0.00     0.002 A 
ATOM     22  C   UNL d   1      54.820  33.720  55.833  0.00  0.00     0.000 A 
ATOM     23  C   UNL d   1      55.550  33.906  55.467  0.00  0.00     0.000 A 
ATOM     24  C   UNL d   1      55.595  33.896  54.628  0.00  0.00     0.000 A 
ATOM     25  C   UNL d   1      54.946  33.709  54.169  0.00  0.00     0.002 A 
ENDBRANCH   4  20
TORSDOF 6
ENDMDL
MODEL 6
REMARK VINA RESULT:      -5.2      1.847      4.350
REMARK  6 active torsions:
REMARK  status: ('A' for Active; 'I' for Inactive)
REMARK    1  A    between atoms: C_5  and  N_1 
REMARK    2  A    between atoms: C_7  and  C_3 
REMARK    3  A    between atoms: C_12  and  C_4 
REMARK    4  A    between atoms: N_14  and  C_5 
REMARK    5  A    between atoms: O_16  and  C_9 
REMARK    6  A    between atoms: O_17  and  C_11 
ROOT
ATOM      1  N   UNL d   1      52.070  34.499  53.254  0.00  0.00    -0.203 N 
ATOM      2  N   UNL d   1      51.381  34.915  53.061  0.00  0.00    -0.163 NA
ATOM      3  C   UNL d   1      51.895  33.699  53.205  0.00  0.00     0.087 A 
ATOM      4  C   UNL d   1      50.797  34.384  52.898  0.00  0.00     0.103 A 
ATOM      5  C   UNL d   1      51.107  33.633  52.984  0.00  0.00     0.040 A 
ENDROOT
BRANCH   3   6
ATOM      6  C   UNL d   1      52.410  33.063  53.349  0.00  0.00     0.020 A 
ATOM      7  C   UNL d   1      52.685  32.894  54.093  0.00  0.00     0.028 A 
ATOM      8  C   UNL d   1      53.192  32.267  54.230  0.00  0.00     0.116 A 
ATOM      9  C   UNL d   1      53.427  31.802  53.610  0.00  0.00     0.116 A 
ATOM     10  C   UNL d   1      53.157  31.959  52.847  0.00  0.00     0.026 A 
ATOM     11  C   UNL d   1      52.650  32.586  52.710  0.00  0.00     0.004 A 
BRANCH   8  12
ATOM     12  O   UNL d   1      53.477  32.090  54.990  0.00  0.00    -0.326 OA
ATOM     13  C   UNL d   1      54.039  32.583  55.350  0.00  0.00     0.181 C 
ENDBRANCH   8  12
BRANCH   9  14
ATOM     14  O   UNL d   1      53.947  31.155  53.738  0.00  0.00    -0.326 OA
ATOM     15  C   UNL d   1      53.899  30.468  53.291  0.00  0.00     0.181 C 
ENDBRANCH   9  14
ENDBRANCH   3   6
BRANCH   1  16
ATOM     16  C   UNL d   1      52.800  34.842  53.459  0.00  0.00     0.222 C 
ATOM     17  S   UNL d   1      53.415  34.919  52.897  0.00  0.00    -0.037 SA
BRANCH  16  18
ATOM     18  N   UNL d   1      52.936  35.123  54.244  0.00  0.00    -0.214 NA
ATOM     19  C   UNL d   1      53.374  35.831  54.351  0.00  0.00     0.122 C 
ENDBRANCH  16  18
ENDBRANCH   1  16
BRANCH   4  20
ATOM     20  C   UNL d   1      50.026  34.611  52.682  0.00  0.00     0.019 A 
ATOM     21  C   UNL d   1      49.557  35.019  53.209  0.00  0.00     0.002 A 
ATOM     22  C   UNL d   1      48.778  35.256  53.009  0.00  0.00     0.000 A 
ATOM     23  C   UNL d   1      48.484  35.066  52.248  0.00  0.00     0.000 A 
ATOM     24  C   UNL d   1      48.980  34.645  51.717  0.00  0.00     0.000 A 
ATOM     25  C   UNL d   1      49.737  34.422  51.928  0.00  0.00     0.002 A 
ENDBRANCH   4  20
TORSDOF 6
ENDMDL
