MODEL 1
REMARK VINA RESULT:      -5.3      0.000      0.000
REMARK  5 active torsions:
REMARK  status: ('A' for Active; 'I' for Inactive)
REMARK    1  A    between atoms: N_2  and  S_1 
REMARK    2  A    between atoms: C_5  and  S_1 
REMARK    3  A    between atoms: C_4  and  C_3 
REMARK       I    between atoms: N_6  and  C_4 
REMARK    4  A    between atoms: C_12  and  N_6 
REMARK    5  A    between atoms: O_23  and  C_15 
ROOT
ATOM      1  N   UNL d   1     -40.651  14.974  17.251  0.00  0.00    -0.226 N 
ATOM      2  C   UNL d   1     -40.961  15.370  17.908  0.00  0.00     0.133 A 
ATOM      3  C   UNL d   1     -41.007  15.277  16.574  0.00  0.00     0.092 A 
ATOM      4  C   UNL d   1     -41.512  15.919  17.626  0.00  0.00     0.025 A 
ATOM      5  C   UNL d   1     -41.537  15.859  16.803  0.00  0.00     0.021 A 
ENDROOT
BRANCH   2   6
ATOM      6  C   UNL d   1     -40.757  15.237  18.694  0.00  0.00     0.296 C 
ATOM      7  N   UNL d   1     -40.362  15.833  19.113  0.00  0.00    -0.207 NA
ATOM      8  O   UNL d   1     -40.942  14.524  19.060  0.00  0.00    -0.264 OA
BRANCH   7   9
ATOM      9  C   UNL d   1     -40.156  15.701  19.906  0.00  0.00     0.085 A 
ATOM     10  C   UNL d   1     -40.704  15.359  20.423  0.00  0.00     0.021 A 
ATOM     11  C   UNL d   1     -40.494  15.229  21.214  0.00  0.00     0.026 A 
ATOM     12  C   UNL d   1     -39.744  15.440  21.480  0.00  0.00     0.094 A 
ATOM     13  C   UNL d   1     -39.197  15.783  20.959  0.00  0.00     0.026 A 
ATOM     14  C   UNL d   1     -39.405  15.912  20.172  0.00  0.00     0.021 A 
BRANCH  12  15
ATOM     15  O   UNL d   1     -39.531  15.311  22.268  0.00  0.00    -0.328 OA
ATOM     16  C   UNL d   1     -39.148  14.606  22.474  0.00  0.00     0.181 C 
ENDBRANCH  12  15
ENDBRANCH   7   9
ENDBRANCH   2   6
BRANCH   1  17
ATOM     17  S   UNL d   1     -40.080  14.382  17.332  0.00  0.00     0.271 S 
ATOM     18  O   UNL d   1     -40.700  13.881  17.503  0.00  0.00    -0.200 OA
ATOM     19  O   UNL d   1     -39.453  14.903  17.156  0.00  0.00    -0.200 OA
BRANCH  17  20
ATOM     20  C   UNL d   1     -39.542  13.767  17.421  0.00  0.00     0.104 A 
ATOM     21  C   UNL d   1     -38.731  13.920  17.409  0.00  0.00     0.013 A 
ATOM     22  C   UNL d   1     -38.197  13.297  17.499  0.00  0.00     0.001 A 
ATOM     23  C   UNL d   1     -38.473  12.523  17.601  0.00  0.00     0.000 A 
ATOM     24  C   UNL d   1     -39.291  12.370  17.613  0.00  0.00     0.001 A 
ATOM     25  C   UNL d   1     -37.943  11.898  17.691  0.00  0.00     0.000 C 
ATOM     26  C   UNL d   1     -39.821  12.996  17.522  0.00  0.00     0.013 A 
ENDBRANCH  17  20
ENDBRANCH   1  17
TORSDOF 5
ENDMDL
MODEL 2
REMARK VINA RESULT:      -5.3      8.799     10.206
REMARK  5 active torsions:
REMARK  status: ('A' for Active; 'I' for Inactive)
REMARK    1  A    between atoms: N_2  and  S_1 
REMARK    2  A    between atoms: C_5  and  S_1 
REMARK    3  A    between atoms: C_4  and  C_3 
REMARK       I    between atoms: N_6  and  C_4 
REMARK    4  A    between atoms: C_12  and  N_6 
REMARK    5  A    between atoms: O_23  and  C_15 
ROOT
ATOM      1  N   UNL d   1     -49.589  12.059  23.220  0.00  0.00    -0.226 N 
ATOM      2  C   UNL d   1     -48.818  11.765  23.154  0.00  0.00     0.133 A 
ATOM      3  C   UNL d   1     -50.062  11.475  23.554  0.00  0.00     0.092 A 
ATOM      4  C   UNL d   1     -48.825  10.992  23.453  0.00  0.00     0.025 A 
ATOM      5  C   UNL d   1     -49.593  10.818  23.698  0.00  0.00     0.021 A 
ENDROOT
BRANCH   2   6
ATOM      6  C   UNL d   1     -48.170  12.168  22.849  0.00  0.00     0.296 C 
ATOM      7  N   UNL d   1     -47.519  12.316  23.340  0.00  0.00    -0.207 NA
ATOM      8  O   UNL d   1     -48.167  12.424  22.067  0.00  0.00    -0.264 OA
BRANCH   7   9
ATOM      9  C   UNL d   1     -46.864  12.723  23.033  0.00  0.00     0.085 A 
ATOM     10  C   UNL d   1     -46.307  12.320  22.572  0.00  0.00     0.021 A 
ATOM     11  C   UNL d   1     -45.656  12.730  22.268  0.00  0.00     0.026 A 
ATOM     12  C   UNL d   1     -45.565  13.533  22.425  0.00  0.00     0.094 A 
ATOM     13  C   UNL d   1     -46.125  13.934  22.887  0.00  0.00     0.026 A 
ATOM     14  C   UNL d   1     -46.775  13.526  23.191  0.00  0.00     0.021 A 
BRANCH  12  15
ATOM     15  O   UNL d   1     -44.916  13.946  22.122  0.00  0.00    -0.328 OA
ATOM     16  C   UNL d   1     -44.367  13.547  21.648  0.00  0.00     0.181 C 
ENDBRANCH  12  15
ENDBRANCH   7   9
ENDBRANCH   2   6
BRANCH   1  17
ATOM     17  S   UNL d   1     -49.783  12.823  22.971  0.00  0.00     0.271 S 
ATOM     18  O   UNL d   1     -50.006  12.480  22.265  0.00  0.00    -0.200 OA
ATOM     19  O   UNL d   1     -49.553  13.164  23.697  0.00  0.00    -0.200 OA
BRANCH  17  20
ATOM     20  C   UNL d   1     -49.988  13.567  22.689  0.00  0.00     0.104 A 
ATOM     21  C   UNL d   1     -49.970  14.222  23.191  0.00  0.00     0.013 A 
ATOM     22  C   UNL d   1     -50.177  14.965  22.900  0.00  0.00     0.001 A 
ATOM     23  C   UNL d   1     -50.402  15.055  22.108  0.00  0.00     0.000 A 
ATOM     24  C   UNL d   1     -50.420  14.394  21.603  0.00  0.00     0.001 A 
ATOM     25  C   UNL d   1     -50.610  15.796  21.813  0.00  0.00     0.000 C 
ATOM     26  C   UNL d   1     -50.212  13.653  21.898  0.00  0.00     0.013 A 
ENDBRANCH  17  20
ENDBRANCH   1  17
TORSDOF 5
ENDMDL
MODEL 3
REMARK VINA RESULT:      -4.7      8.120      9.294
REMARK  5 active torsions:
REMARK  status: ('A' for Active; 'I' for Inactive)
REMARK    1  A    between atoms: N_2  and  S_1 
REMARK    2  A    between atoms: C_5  and  S_1 
REMARK    3  A    between atoms: C_4  and  C_3 
REMARK       I    between atoms: N_6  and  C_4 
REMARK    4  A    between atoms: C_12  and  N_6 
REMARK    5  A    between atoms: O_23  and  C_15 
ROOT
ATOM      1  N   UNL d   1     -46.432  14.204  22.662  0.00  0.00    -0.226 N 
ATOM      2  C   UNL d   1     -47.226  14.438  22.657  0.00  0.00     0.133 A 
ATOM      3  C   UNL d   1     -45.971  14.847  22.435  0.00  0.00     0.092 A 
ATOM      4  C   UNL d   1     -47.246  15.233  22.424  0.00  0.00     0.025 A 
ATOM      5  C   UNL d   1     -46.471  15.480  22.288  0.00  0.00     0.021 A 
ENDROOT
BRANCH   2   6
ATOM      6  C   UNL d   1     -47.870  13.965  22.849  0.00  0.00     0.296 C 
ATOM      7  N   UNL d   1     -48.474  13.861  22.290  0.00  0.00    -0.207 NA
ATOM      8  O   UNL d   1     -47.917  13.600  23.585  0.00  0.00    -0.264 OA
BRANCH   7   9
ATOM      9  C   UNL d   1     -49.125  13.384  22.483  0.00  0.00     0.085 A 
ATOM     10  C   UNL d   1     -49.629  13.605  23.102  0.00  0.00     0.021 A 
ATOM     11  C   UNL d   1     -50.278  13.126  23.290  0.00  0.00     0.026 A 
ATOM     12  C   UNL d   1     -50.418  12.436  22.863  0.00  0.00     0.094 A 
ATOM     13  C   UNL d   1     -49.910  12.218  22.243  0.00  0.00     0.026 A 
ATOM     14  C   UNL d   1     -49.264  12.694  22.055  0.00  0.00     0.021 A 
BRANCH  12  15
ATOM     15  O   UNL d   1     -51.064  11.955  23.049  0.00  0.00    -0.328 OA
ATOM     16  C   UNL d   1     -51.015  11.443  23.697  0.00  0.00     0.181 C 
ENDBRANCH  12  15
ENDBRANCH   7   9
ENDBRANCH   2   6
BRANCH   1  17
ATOM     17  S   UNL d   1     -46.207  13.437  22.870  0.00  0.00     0.271 S 
ATOM     18  O   UNL d   1     -46.164  13.289  22.069  0.00  0.00    -0.200 OA
ATOM     19  O   UNL d   1     -46.254  13.599  23.687  0.00  0.00    -0.200 OA
BRANCH  17  20
ATOM     20  C   UNL d   1     -45.981  12.665  23.038  0.00  0.00     0.104 A 
ATOM     21  C   UNL d   1     -45.281  12.360  22.723  0.00  0.00     0.013 A 
ATOM     22  C   UNL d   1     -45.061  11.583  22.896  0.00  0.00     0.001 A 
ATOM     23  C   UNL d   1     -45.539  11.113  23.382  0.00  0.00     0.000 A 
ATOM     24  C   UNL d   1     -46.244  11.422  23.698  0.00  0.00     0.001 A 
ATOM     25  C   UNL d   1     -45.323  10.336  23.557  0.00  0.00     0.000 C 
ATOM     26  C   UNL d   1     -46.460  12.198  23.522  0.00  0.00     0.013 A 
ENDBRANCH  17  20
ENDBRANCH   1  17
TORSDOF 5
ENDMDL
MODEL 4
REMARK VINA RESULT:      -4.5      1.911      4.410
REMARK  5 active torsions:
REMARK  status: ('A' for Active; 'I' for Inactive)
REMARK    1  A    between atoms: N_2  and  S_1 
REMARK    2  A    between atoms: C_5  and  S_1 
REMARK    3  A    between atoms: C_4  and  C_3 
REMARK       I    between atoms: N_6  and  C_4 
REMARK    4  A    between atoms: C_12  and  N_6 
REMARK    5  A    between atoms: O_23  and  C_15 
ROOT
ATOM      1  N   UNL d   1     -39.089  15.341  21.366  0.00  0.00    -0.226 N 
ATOM      2  C   UNL d   1     -38.628  15.545  20.710  0.00  0.00     0.133 A 
ATOM      3  C   UNL d   1     -38.689  15.574  22.046  0.00  0.00     0.092 A 
ATOM      4  C   UNL d   1     -37.940  15.906  20.996  0.00  0.00     0.025 A 
ATOM      5  C   UNL d   1     -37.982  15.922  21.820  0.00  0.00     0.021 A 
ENDROOT
BRANCH   2   6
ATOM      6  C   UNL d   1     -38.822  15.411  19.922  0.00  0.00     0.296 C 
ATOM      7  N   UNL d   1     -38.334  14.921  19.465  0.00  0.00    -0.207 NA
ATOM      8  O   UNL d   1     -39.490  15.759  19.591  0.00  0.00    -0.264 OA
BRANCH   7   9
ATOM      9  C   UNL d   1     -38.529  14.785  18.670  0.00  0.00     0.085 A 
ATOM     10  C   UNL d   1     -38.744  14.024  18.422  0.00  0.00     0.021 A 
ATOM     11  C   UNL d   1     -38.937  13.893  17.628  0.00  0.00     0.026 A 
ATOM     12  C   UNL d   1     -38.915  14.516  17.091  0.00  0.00     0.094 A 
ATOM     13  C   UNL d   1     -38.699  15.277  17.342  0.00  0.00     0.026 A 
ATOM     14  C   UNL d   1     -38.506  15.409  18.133  0.00  0.00     0.021 A 
BRANCH  12  15
ATOM     15  O   UNL d   1     -39.107  14.389  16.296  0.00  0.00    -0.328 OA
ATOM     16  C   UNL d   1     -38.541  14.057  15.791  0.00  0.00     0.181 C 
ENDBRANCH  12  15
ENDBRANCH   7   9
ENDBRANCH   2   6
BRANCH   1  17
ATOM     17  S   UNL d   1     -39.821  14.967  21.282  0.00  0.00     0.271 S 
ATOM     18  O   UNL d   1     -39.424  14.272  21.441  0.00  0.00    -0.200 OA
ATOM     19  O   UNL d   1     -40.217  15.683  21.120  0.00  0.00    -0.200 OA
BRANCH  17  20
ATOM     20  C   UNL d   1     -40.530  14.560  21.206  0.00  0.00     0.104 A 
ATOM     21  C   UNL d   1     -41.230  14.969  21.049  0.00  0.00     0.013 A 
ATOM     22  C   UNL d   1     -41.938  14.553  20.974  0.00  0.00     0.001 A 
ATOM     23  C   UNL d   1     -41.948  13.729  21.056  0.00  0.00     0.000 A 
ATOM     24  C   UNL d   1     -41.243  13.317  21.215  0.00  0.00     0.001 A 
ATOM     25  C   UNL d   1     -42.654  13.309  20.982  0.00  0.00     0.000 C 
ATOM     26  C   UNL d   1     -40.537  13.738  21.289  0.00  0.00     0.013 A 
ENDBRANCH  17  20
ENDBRANCH   1  17
TORSDOF 5
ENDMDL
MODEL 5
REMARK VINA RESULT:      -3.4      1.903      3.340
REMARK  5 active torsions:
REMARK  status: ('A' for Active; 'I' for Inactive)
REMARK    1  A    between atoms: N_2  and  S_1 
REMARK    2  A    between atoms: C_5  and  S_1 
REMARK    3  A    between atoms: C_4  and  C_3 
REMARK       I    between atoms: N_6  and  C_4 
REMARK    4  A    between atoms: C_12  and  N_6 
REMARK    5  A    between atoms: O_23  and  C_15 
ROOT
ATOM      1  N   UNL d   1     -38.836  15.206  19.891  0.00  0.00    -0.226 N 
ATOM      2  C   UNL d   1     -39.093  14.796  20.562  0.00  0.00     0.133 A 
ATOM      3  C   UNL d   1     -38.133  15.591  20.076  0.00  0.00     0.092 A 
ATOM      4  C   UNL d   1     -38.538  14.934  21.161  0.00  0.00     0.025 A 
ATOM      5  C   UNL d   1     -37.949  15.425  20.857  0.00  0.00     0.021 A 
ENDROOT
BRANCH   2   6
ATOM      6  C   UNL d   1     -39.773  14.337  20.618  0.00  0.00     0.296 C 
ATOM      7  N   UNL d   1     -40.376  14.573  21.136  0.00  0.00    -0.207 NA
ATOM      8  O   UNL d   1     -39.855  13.653  20.168  0.00  0.00    -0.264 OA
BRANCH   7   9
ATOM      9  C   UNL d   1     -41.063  14.111  21.193  0.00  0.00     0.085 A 
ATOM     10  C   UNL d   1     -41.796  14.435  20.986  0.00  0.00     0.021 A 
ATOM     11  C   UNL d   1     -42.479  13.971  21.045  0.00  0.00     0.026 A 
ATOM     12  C   UNL d   1     -42.427  13.193  21.309  0.00  0.00     0.094 A 
ATOM     13  C   UNL d   1     -41.690  12.871  21.516  0.00  0.00     0.026 A 
ATOM     14  C   UNL d   1     -41.010  13.333  21.457  0.00  0.00     0.021 A 
BRANCH  12  15
ATOM     15  O   UNL d   1     -43.107  12.726  21.369  0.00  0.00    -0.328 OA
ATOM     16  C   UNL d   1     -43.843  13.094  21.460  0.00  0.00     0.181 C 
ENDBRANCH  12  15
ENDBRANCH   7   9
ENDBRANCH   2   6
BRANCH   1  17
ATOM     17  S   UNL d   1     -39.263  15.189  19.183  0.00  0.00     0.271 S 
ATOM     18  O   UNL d   1     -39.551  15.921  19.401  0.00  0.00    -0.200 OA
ATOM     19  O   UNL d   1     -38.963  14.441  18.970  0.00  0.00    -0.200 OA
BRANCH  17  20
ATOM     20  C   UNL d   1     -39.703  15.209  18.490  0.00  0.00     0.104 A 
ATOM     21  C   UNL d   1     -39.570  14.649  17.898  0.00  0.00     0.013 A 
ATOM     22  C   UNL d   1     -40.016  14.676  17.204  0.00  0.00     0.001 A 
ATOM     23  C   UNL d   1     -40.593  15.261  17.101  0.00  0.00     0.000 A 
ATOM     24  C   UNL d   1     -40.725  15.825  17.698  0.00  0.00     0.001 A 
ATOM     25  C   UNL d   1     -41.041  15.291  16.409  0.00  0.00     0.000 C 
ATOM     26  C   UNL d   1     -40.278  15.794  18.390  0.00  0.00     0.013 A 
ENDBRANCH  17  20
ENDBRANCH   1  17
TORSDOF 5
ENDMDL
MODEL 6
REMARK VINA RESULT:      -2.8      1.545      2.955
REMARK  5 active torsions:
REMARK  status: ('A' for Active; 'I' for Inactive)
REMARK    1  A    between atoms: N_2  and  S_1 
REMARK    2  A    between atoms: C_5  and  S_1 
REMARK    3  A    between atoms: C_4  and  C_3 
REMARK       I    between atoms: N_6  and  C_4 
REMARK    4  A    between atoms: C_12  and  N_6 
REMARK    5  A    between atoms: O_23  and  C_15 
ROOT
ATOM      1  N   UNL d   1     -38.753  12.942  18.493  0.00  0.00    -0.226 N 
ATOM      2  C   UNL d   1     -38.373  12.967  19.228  0.00  0.00     0.133 A 
ATOM      3  C   UNL d   1     -38.560  12.233  18.125  0.00  0.00     0.092 A 
ATOM      4  C   UNL d   1     -37.944  12.263  19.305  0.00  0.00     0.025 A 
ATOM      5  C   UNL d   1     -38.062  11.813  18.623  0.00  0.00     0.021 A 
ENDROOT
BRANCH   2   6
ATOM      6  C   UNL d   1     -38.416  13.578  19.775  0.00  0.00     0.296 C 
ATOM      7  N   UNL d   1     -38.860  13.470  20.467  0.00  0.00    -0.207 NA
ATOM      8  O   UNL d   1     -38.025  14.290  19.640  0.00  0.00    -0.264 OA
BRANCH   7   9
ATOM      9  C   UNL d   1     -38.905  14.087  21.020  0.00  0.00     0.085 A 
ATOM     10  C   UNL d   1     -38.342  14.695  21.006  0.00  0.00     0.021 A 
ATOM     11  C   UNL d   1     -38.391  15.308  21.560  0.00  0.00     0.026 A 
ATOM     12  C   UNL d   1     -38.994  15.311  22.119  0.00  0.00     0.094 A 
ATOM     13  C   UNL d   1     -39.556  14.700  22.131  0.00  0.00     0.026 A 
ATOM     14  C   UNL d   1     -39.509  14.088  21.580  0.00  0.00     0.021 A 
BRANCH  12  15
ATOM     15  O   UNL d   1     -39.046  15.922  22.674  0.00  0.00    -0.328 OA
ATOM     16  C   UNL d   1     -38.619  15.863  23.382  0.00  0.00     0.181 C 
ENDBRANCH  12  15
ENDBRANCH   7   9
ENDBRANCH   2   6
BRANCH   1  17
ATOM     17  S   UNL d   1     -39.234  13.563  18.234  0.00  0.00     0.271 S 
ATOM     18  O   UNL d   1     -39.808  12.996  18.111  0.00  0.00    -0.200 OA
ATOM     19  O   UNL d   1     -38.640  14.134  18.363  0.00  0.00    -0.200 OA
BRANCH  17  20
ATOM     20  C   UNL d   1     -39.741  14.152  17.969  0.00  0.00     0.104 A 
ATOM     21  C   UNL d   1     -39.525  14.631  17.333  0.00  0.00     0.013 A 
ATOM     22  C   UNL d   1     -40.040  15.221  17.072  0.00  0.00     0.001 A 
ATOM     23  C   UNL d   1     -40.770  15.332  17.447  0.00  0.00     0.000 A 
ATOM     24  C   UNL d   1     -40.987  14.848  18.088  0.00  0.00     0.001 A 
ATOM     25  C   UNL d   1     -41.288  15.920  17.190  0.00  0.00     0.000 C 
ATOM     26  C   UNL d   1     -40.469  14.260  18.345  0.00  0.00     0.013 A 
ENDBRANCH  17  20
ENDBRANCH   1  17
TORSDOF 5
ENDMDL
