MODEL 1
REMARK VINA RESULT:      -3.8      0.000      0.000
REMARK  6 active torsions:
REMARK  status: ('A' for Active; 'I' for Inactive)
REMARK    1  A    between atoms: N_2  and  S_1 
REMARK    2  A    between atoms: C_6  and  S_1 
REMARK    3  A    between atoms: C_3  and  N_2 
REMARK       I    between atoms: C_7  and  N_13 
REMARK    4  A    between atoms: C_10  and  C_7 
REMARK    5  A    between atoms: C_12  and  C_10 
REMARK    6  A    between atoms: C_11  and  C_12 
ROOT
ATOM      1  C   UNL d   1      58.305  -0.739  29.917  0.00  0.00     0.105 A 
ATOM      2  C   UNL d   1      56.401   0.280  32.514  0.00  0.00     0.280 C 
ATOM      3  N   UNL d   1      56.886   0.682  31.979  0.00  0.00    -0.208 NA
ATOM      4  O   UNL d   1      55.994   0.682  33.104  0.00  0.00    -0.265 OA
ATOM      5  C   UNL d   1      58.384   0.074  29.974  0.00  0.00     0.015 A 
ATOM      6  C   UNL d   1      57.835  -1.154  30.431  0.00  0.00     0.015 A 
ATOM      7  C   UNL d   1      57.496   0.079  31.094  0.00  0.00     0.085 A 
ATOM      8  C   UNL d   1      57.976   0.488  30.567  0.00  0.00     0.020 A 
ATOM      9  C   UNL d   1      57.425  -0.742  31.026  0.00  0.00     0.020 A 
ENDROOT
BRANCH   1  10
ATOM     10  S   UNL d   1      58.730  -1.159  29.301  0.00  0.00     0.285 S 
ATOM     11  O   UNL d   1      58.252  -1.819  29.408  0.00  0.00    -0.198 OA
ATOM     12  O   UNL d   1      59.217  -0.477  29.196  0.00  0.00    -0.198 OA
BRANCH  10  13
ATOM     13  N   UNL d   1      59.160  -1.555  28.692  0.00  0.00    -0.158 NA
BRANCH  13  14
ATOM     14  C   UNL d   1      59.649  -2.185  28.881  0.00  0.00     0.094 A 
ATOM     15  C   UNL d   1      60.408  -2.045  29.159  0.00  0.00     0.018 A 
ATOM     16  C   UNL d   1      60.887  -2.687  29.344  0.00  0.00     0.002 A 
ATOM     17  C   UNL d   1      60.688  -1.242  29.250  0.00  0.00     0.002 C 
ATOM     18  C   UNL d   1      60.615  -3.436  29.254  0.00  0.00     0.000 A 
ATOM     19  C   UNL d   1      59.854  -3.596  28.977  0.00  0.00     0.002 A 
ATOM     20  C   UNL d   1      61.129  -4.080  29.453  0.00  0.00     0.000 C 
ATOM     21  C   UNL d   1      59.369  -2.972  28.789  0.00  0.00     0.018 A 
ATOM     22  C   UNL d   1      58.612  -3.135  28.513  0.00  0.00     0.002 C 
ENDBRANCH  13  14
ENDBRANCH  10  13
ENDBRANCH   1  10
BRANCH   2  23
ATOM     23  C   UNL d   1      56.336  -0.547  32.437  0.00  0.00     0.069 C 
BRANCH  23  24
ATOM     24  C   UNL d   1      55.745  -0.947  32.881  0.00  0.00     0.075 C 
BRANCH  24  25
ATOM     25  C   UNL d   1      55.848  -1.740  33.076  0.00  0.00     0.211 C 
ATOM     26  O   UNL d   1      56.253  -1.970  33.776  0.00  0.00    -0.644 OA
ATOM     27  O   UNL d   1      55.552  -2.339  32.585  0.00  0.00    -0.644 OA
ENDBRANCH  24  25
ENDBRANCH  23  24
ENDBRANCH   2  23
TORSDOF 6
ENDMDL
MODEL 2
REMARK VINA RESULT:      -2.9      0.653      1.200
REMARK  6 active torsions:
REMARK  status: ('A' for Active; 'I' for Inactive)
REMARK    1  A    between atoms: N_2  and  S_1 
REMARK    2  A    between atoms: C_6  and  S_1 
REMARK    3  A    between atoms: C_3  and  N_2 
REMARK       I    between atoms: C_7  and  N_13 
REMARK    4  A    between atoms: C_10  and  C_7 
REMARK    5  A    between atoms: C_12  and  C_10 
REMARK    6  A    between atoms: C_11  and  C_12 
ROOT
ATOM      1  C   UNL d   1      58.276  -0.327  30.301  0.00  0.00     0.105 A 
ATOM      2  C   UNL d   1      56.658   0.282  33.202  0.00  0.00     0.280 C 
ATOM      3  N   UNL d   1      57.256   0.681  32.797  0.00  0.00    -0.208 NA
ATOM      4  O   UNL d   1      56.364   0.566  33.915  0.00  0.00    -0.265 OA
ATOM      5  C   UNL d   1      58.584   0.365  30.612  0.00  0.00     0.015 A 
ATOM      6  C   UNL d   1      57.688  -0.736  30.682  0.00  0.00     0.015 A 
ATOM      7  C   UNL d   1      57.697   0.254  31.727  0.00  0.00     0.085 A 
ATOM      8  C   UNL d   1      58.292   0.660  31.332  0.00  0.00     0.020 A 
ATOM      9  C   UNL d   1      57.395  -0.443  31.403  0.00  0.00     0.020 A 
ENDROOT
BRANCH   1  10
ATOM     10  S   UNL d   1      58.583  -0.625  29.556  0.00  0.00     0.285 S 
ATOM     11  O   UNL d   1      58.475  -1.399  29.811  0.00  0.00    -0.198 OA
ATOM     12  O   UNL d   1      58.691   0.173  29.303  0.00  0.00    -0.198 OA
BRANCH  10  13
ATOM     13  N   UNL d   1      58.887  -0.897  28.819  0.00  0.00    -0.158 NA
BRANCH  13  14
ATOM     14  C   UNL d   1      59.429  -1.512  28.802  0.00  0.00     0.094 A 
ATOM     15  C   UNL d   1      59.169  -2.283  28.699  0.00  0.00     0.018 A 
ATOM     16  C   UNL d   1      59.725  -2.889  28.684  0.00  0.00     0.002 A 
ATOM     17  C   UNL d   1      58.334  -2.445  28.608  0.00  0.00     0.002 C 
ATOM     18  C   UNL d   1      60.506  -2.727  28.769  0.00  0.00     0.000 A 
ATOM     19  C   UNL d   1      60.785  -1.958  28.874  0.00  0.00     0.002 A 
ATOM     20  C   UNL d   1      61.056  -3.371  28.751  0.00  0.00     0.000 C 
ATOM     21  C   UNL d   1      60.248  -1.348  28.891  0.00  0.00     0.018 A 
ATOM     22  C   UNL d   1      60.530  -0.583  28.996  0.00  0.00     0.002 C 
ENDBRANCH  13  14
ENDBRANCH  10  13
ENDBRANCH   1  10
BRANCH   2  23
ATOM     23  C   UNL d   1      56.360  -0.420  32.867  0.00  0.00     0.069 C 
BRANCH  23  24
ATOM     24  C   UNL d   1      55.861  -0.909  33.335  0.00  0.00     0.075 C 
BRANCH  24  25
ATOM     25  C   UNL d   1      55.661  -1.663  33.067  0.00  0.00     0.211 C 
ATOM     26  O   UNL d   1      56.116  -2.337  33.279  0.00  0.00    -0.644 OA
ATOM     27  O   UNL d   1      55.002  -1.776  32.578  0.00  0.00    -0.644 OA
ENDBRANCH  24  25
ENDBRANCH  23  24
ENDBRANCH   2  23
TORSDOF 6
ENDMDL
