MODEL 1
REMARK VINA RESULT:      -4.7      0.000      0.000
REMARK  3 active torsions:
REMARK  status: ('A' for Active; 'I' for Inactive)
REMARK    1  A    between atoms: C_6  and  C_1 
REMARK    2  A    between atoms: C_12  and  C_6 
REMARK    3  A    between atoms: C_9  and  C_10 
ROOT
ATOM      1  C   UNL d   1     -41.320-121.922 -52.188  0.00  0.00     0.139 A 
ATOM      2  C   UNL d   1     -41.518-121.990 -53.503  0.00  0.00     0.064 A 
ATOM      3  C   UNL d   1     -41.562-121.490 -52.850  0.00  0.00     0.220 A 
ATOM      4  C   UNL d   1     -41.251-122.729 -53.251  0.00  0.00     0.106 A 
ATOM      5  O   UNL d   1     -41.128-122.686 -52.434  0.00  0.00    -0.304 OA
ATOM      6  C   UNL d   1     -41.158-123.332 -53.793  0.00  0.00     0.067 A 
ATOM      7  C   UNL d   1     -41.689-121.862 -54.298  0.00  0.00     0.009 A 
ATOM      8  O   UNL d   1     -41.802-120.700 -52.847  0.00  0.00    -0.284 OA
ATOM      9  C   UNL d   1     -41.329-123.204 -54.589  0.00  0.00     0.198 A 
ATOM     10  C   UNL d   1     -41.593-122.473 -54.838  0.00  0.00     0.042 A 
ATOM     11  O   UNL d   1     -41.233-123.816 -55.132  0.00  0.00    -0.286 OA
ENDROOT
BRANCH   1  12
ATOM     12  C   UNL d   1     -41.276-121.642 -51.414  0.00  0.00     0.028 C 
BRANCH  12  13
ATOM     13  C   UNL d   1     -41.618-122.068 -50.791  0.00  0.00     0.002 A 
ATOM     14  C   UNL d   1     -41.131-122.487 -50.279  0.00  0.00    -0.000 A 
ATOM     15  C   UNL d   1     -41.455-122.913 -49.659  0.00  0.00    -0.004 A 
ATOM     16  C   UNL d   1     -42.282-122.922 -49.548  0.00  0.00    -0.023 A 
ATOM     17  C   UNL d   1     -42.769-122.498 -50.066  0.00  0.00    -0.004 A 
ATOM     18  C   UNL d   1     -42.428-122.072 -50.688  0.00  0.00    -0.000 A 
BRANCH  16  19
ATOM     19  C   UNL d   1     -42.613-123.353 -48.919  0.00  0.00     0.019 C 
ATOM     20  C   UNL d   1     -42.938-123.777 -48.297  0.00  0.00     0.004 C 
ATOM     21  C   UNL d   1     -43.032-123.817 -49.461  0.00  0.00     0.004 C 
ATOM     22  C   UNL d   1     -42.191-122.885 -48.388  0.00  0.00     0.004 C 
ENDBRANCH  16  19
ENDBRANCH  12  13
ENDBRANCH   1  12
TORSDOF 3
ENDMDL
MODEL 2
REMARK VINA RESULT:      -2.8      1.350      4.420
REMARK  3 active torsions:
REMARK  status: ('A' for Active; 'I' for Inactive)
REMARK    1  A    between atoms: C_6  and  C_1 
REMARK    2  A    between atoms: C_12  and  C_6 
REMARK    3  A    between atoms: C_9  and  C_10 
ROOT
ATOM      1  C   UNL d   1     -41.897-121.983 -50.995  0.00  0.00     0.139 A 
ATOM      2  C   UNL d   1     -42.332-122.579 -49.887  0.00  0.00     0.064 A 
ATOM      3  C   UNL d   1     -42.572-122.149 -50.548  0.00  0.00     0.220 A 
ATOM      4  C   UNL d   1     -41.514-122.680 -49.921  0.00  0.00     0.106 A 
ATOM      5  O   UNL d   1     -41.245-122.310 -50.610  0.00  0.00    -0.304 OA
ATOM      6  C   UNL d   1     -41.132-123.091 -49.328  0.00  0.00     0.067 A 
ATOM      7  C   UNL d   1     -42.761-122.891 -49.257  0.00  0.00     0.009 A 
ATOM      8  O   UNL d   1     -43.342-121.921 -50.737  0.00  0.00    -0.284 OA
ATOM      9  C   UNL d   1     -41.561-123.404 -48.698  0.00  0.00     0.198 A 
ATOM     10  C   UNL d   1     -42.371-123.303 -48.664  0.00  0.00     0.042 A 
ATOM     11  O   UNL d   1     -41.171-123.818 -48.102  0.00  0.00    -0.286 OA
ENDROOT
BRANCH   1  12
ATOM     12  C   UNL d   1     -41.874-121.563 -51.705  0.00  0.00     0.028 C 
BRANCH  12  13
ATOM     13  C   UNL d   1     -41.788-121.959 -52.427  0.00  0.00     0.002 A 
ATOM     14  C   UNL d   1     -41.219-122.546 -52.496  0.00  0.00    -0.000 A 
ATOM     15  C   UNL d   1     -41.123-122.947 -53.204  0.00  0.00    -0.004 A 
ATOM     16  C   UNL d   1     -41.606-122.756 -53.857  0.00  0.00    -0.023 A 
ATOM     17  C   UNL d   1     -42.179-122.164 -53.784  0.00  0.00    -0.004 A 
ATOM     18  C   UNL d   1     -42.265-121.767 -53.062  0.00  0.00    -0.000 A 
BRANCH  16  19
ATOM     19  C   UNL d   1     -41.511-123.161 -54.578  0.00  0.00     0.019 C 
ATOM     20  C   UNL d   1     -41.415-123.562 -55.286  0.00  0.00     0.004 C 
ATOM     21  C   UNL d   1     -41.879-122.536 -54.975  0.00  0.00     0.004 C 
ATOM     22  C   UNL d   1     -41.145-123.778 -54.170  0.00  0.00     0.004 C 
ENDBRANCH  16  19
ENDBRANCH  12  13
ENDBRANCH   1  12
TORSDOF 3
ENDMDL
