MODEL 1
REMARK VINA RESULT:      35.3      0.000      0.000
REMARK  8 active torsions:
REMARK  status: ('A' for Active; 'I' for Inactive)
REMARK    1  A    between atoms: C_8  and  C_1 
REMARK    2  A    between atoms: C_7  and  C_2 
REMARK    3  A    between atoms: C_9  and  C_3 
REMARK    4  A    between atoms: O_14  and  C_7 
REMARK    5  A    between atoms: O_15  and  C_8 
REMARK    6  A    between atoms: C_22  and  O_14 
REMARK    7  A    between atoms: C_23  and  O_15 
REMARK    8  A    between atoms: O_21  and  C_18 
ROOT
ATOM      1  C   UNL d   1      46.278 -18.451  42.392  0.00  0.00     0.081 A 
ATOM      2  C   UNL d   1      46.288 -18.951  43.724  0.00  0.00     0.081 A 
ATOM      3  C   UNL d   1      46.166 -18.332  43.200  0.00  0.00     0.013 A 
ATOM      4  C   UNL d   1      46.512 -19.192  42.113  0.00  0.00     0.086 A 
ATOM      5  C   UNL d   1      46.522 -19.691  43.444  0.00  0.00     0.086 A 
ATOM      6  N   UNL d   1      46.634 -19.811  42.641  0.00  0.00    -0.245 NA
ATOM      7  C   UNL d   1      46.647 -20.326  43.983  0.00  0.00     0.021 C 
ATOM      8  C   UNL d   1      46.628 -19.317  41.292  0.00  0.00     0.021 C 
ENDROOT
BRANCH   3   9
ATOM      9  C   UNL d   1      45.931 -17.589  43.480  0.00  0.00     0.001 A 
ATOM     10  C   UNL d   1      46.476 -16.979  43.542  0.00  0.00     0.002 A 
ATOM     11  C   UNL d   1      46.240 -16.232  43.824  0.00  0.00     0.024 A 
ATOM     12  C   UNL d   1      45.460 -16.101  44.042  0.00  0.00     0.094 A 
ATOM     13  C   UNL d   1      44.911 -16.711  43.981  0.00  0.00     0.024 A 
ATOM     14  C   UNL d   1      45.147 -17.459  43.699  0.00  0.00     0.002 A 
BRANCH  12  15
ATOM     15  O   UNL d   1      45.220 -15.366  44.321  0.00  0.00    -0.328 OA
ATOM     16  C   UNL d   1      45.722 -14.933  44.809  0.00  0.00     0.181 C 
ENDBRANCH  12  15
ENDBRANCH   3   9
BRANCH   2  17
ATOM     17  C   UNL d   1      46.171 -18.824  44.550  0.00  0.00     0.302 C 
ATOM     18  O   UNL d   1      46.642 -18.282  44.951  0.00  0.00    -0.259 OA
BRANCH  17  19
ATOM     19  O   UNL d   1      45.580 -19.248  44.952  0.00  0.00    -0.271 OA
BRANCH  19  20
ATOM     20  C   UNL d   1      45.394 -20.018  44.724  0.00  0.00     0.126 C 
ATOM     21  C   UNL d   1      44.647 -20.325  44.875  0.00  0.00     0.029 C 
ENDBRANCH  19  20
ENDBRANCH  17  19
ENDBRANCH   2  17
BRANCH   1  22
ATOM     22  C   UNL d   1      46.152 -17.814  41.859  0.00  0.00     0.302 C 
ATOM     23  O   UNL d   1      46.209 -17.026  42.134  0.00  0.00    -0.259 OA
BRANCH  22  24
ATOM     24  O   UNL d   1      45.975 -17.978  41.071  0.00  0.00    -0.271 OA
BRANCH  24  25
ATOM     25  C   UNL d   1      45.914 -17.358  40.530  0.00  0.00     0.126 C 
ATOM     26  C   UNL d   1      45.826 -17.524  39.725  0.00  0.00     0.029 C 
ENDBRANCH  24  25
ENDBRANCH  22  24
ENDBRANCH   1  22
TORSDOF 8
ENDMDL
