MODEL 1
REMARK VINA RESULT:      -9.7      0.000      0.000
REMARK  1 active torsions:
REMARK  status: ('A' for Active; 'I' for Inactive)
REMARK    1  A    between atoms: C_2  and  C_1 
REMARK       I    between atoms: N_3  and  C_2 
ROOT
ATOM      1  C   UNL d   1     -49.057  12.264  22.592  0.00  0.00     0.109 A 
ATOM      2  C   UNL d   1     -49.242  12.439  21.880  0.00  0.00     0.026 A 
ATOM      3  C   UNL d   1     -49.626  12.180  23.016  0.00  0.00    -0.014 A 
ATOM      4  C   UNL d   1     -49.412  12.099  23.332  0.00  0.00    -0.014 A 
ATOM      5  C   UNL d   1     -50.075  12.479  21.814  0.00  0.00     0.045 A 
ATOM      6  C   UNL d   1     -50.102  12.128  23.294  0.00  0.00    -0.007 A 
ATOM      7  C   UNL d   1     -50.485  12.221  22.952  0.00  0.00    -0.007 A 
ATOM      8  C   UNL d   1     -50.665  12.391  22.258  0.00  0.00    -0.022 A 
ATOM      9  C   UNL d   1     -50.864  12.055  23.698  0.00  0.00    -0.001 A 
ATOM     10  C   UNL d   1     -50.367  12.351  22.390  0.00  0.00    -0.022 A 
ENDROOT
BRANCH   1  11
ATOM     11  C   UNL d   1     -48.163  12.191  22.790  0.00  0.00     0.248 C 
ATOM     12  N   UNL d   1     -47.548  12.690  22.886  0.00  0.00    -0.275 N 
ATOM     13  C   UNL d   1     -46.827  12.406  23.062  0.00  0.00     0.083 A 
ATOM     14  C   UNL d   1     -47.672  13.477  22.801  0.00  0.00     0.083 A 
ATOM     15  C   UNL d   1     -46.195  12.927  23.160  0.00  0.00     0.019 A 
ATOM     16  C   UNL d   1     -46.302  13.721  23.079  0.00  0.00     0.003 A 
ATOM     17  C   UNL d   1     -47.041  13.998  22.899  0.00  0.00     0.019 A 
ATOM     18  O   UNL d   1     -48.277  11.282  22.832  0.00  0.00    -0.271 OA
ENDBRANCH   1  11
TORSDOF 1
ENDMDL
MODEL 2
REMARK VINA RESULT:      -9.1      2.217      2.508
REMARK  1 active torsions:
REMARK  status: ('A' for Active; 'I' for Inactive)
REMARK    1  A    between atoms: C_2  and  C_1 
REMARK       I    between atoms: N_3  and  C_2 
ROOT
ATOM      1  C   UNL d   1     -48.964  14.711  22.586  0.00  0.00     0.109 A 
ATOM      2  C   UNL d   1     -49.355  14.316  22.072  0.00  0.00     0.026 A 
ATOM      3  C   UNL d   1     -49.379  15.126  22.994  0.00  0.00    -0.014 A 
ATOM      4  C   UNL d   1     -49.080  15.266  23.201  0.00  0.00    -0.014 A 
ATOM      5  C   UNL d   1     -50.168  14.497  22.147  0.00  0.00     0.045 A 
ATOM      6  C   UNL d   1     -49.748  15.426  23.276  0.00  0.00    -0.007 A 
ATOM      7  C   UNL d   1     -50.216  15.315  23.074  0.00  0.00    -0.007 A 
ATOM      8  C   UNL d   1     -50.597  14.931  22.573  0.00  0.00    -0.022 A 
ATOM      9  C   UNL d   1     -50.353  15.880  23.698  0.00  0.00    -0.001 A 
ATOM     10  C   UNL d   1     -50.273  14.934  22.629  0.00  0.00    -0.022 A 
ENDROOT
BRANCH   1  11
ATOM     11  C   UNL d   1     -48.053  14.596  22.602  0.00  0.00     0.248 C 
ATOM     12  N   UNL d   1     -47.546  14.019  22.816  0.00  0.00    -0.275 N 
ATOM     13  C   UNL d   1     -46.762  14.130  22.746  0.00  0.00     0.083 A 
ATOM     14  C   UNL d   1     -47.841  13.331  23.100  0.00  0.00     0.083 A 
ATOM     15  C   UNL d   1     -46.242  13.529  22.969  0.00  0.00     0.019 A 
ATOM     16  C   UNL d   1     -46.522  12.831  23.257  0.00  0.00     0.003 A 
ATOM     17  C   UNL d   1     -47.322  12.730  23.323  0.00  0.00     0.019 A 
ATOM     18  O   UNL d   1     -47.969  15.443  22.261  0.00  0.00    -0.271 OA
ENDBRANCH   1  11
TORSDOF 1
ENDMDL
MODEL 3
REMARK VINA RESULT:      -8.5      1.934      2.649
REMARK  1 active torsions:
REMARK  status: ('A' for Active; 'I' for Inactive)
REMARK    1  A    between atoms: C_2  and  C_1 
REMARK       I    between atoms: N_3  and  C_2 
ROOT
ATOM      1  C   UNL d   1     -49.681  12.847  22.802  0.00  0.00     0.109 A 
ATOM      2  C   UNL d   1     -49.555  12.824  22.057  0.00  0.00     0.026 A 
ATOM      3  C   UNL d   1     -49.332  12.337  23.161  0.00  0.00    -0.014 A 
ATOM      4  C   UNL d   1     -49.470  12.449  23.507  0.00  0.00    -0.014 A 
ATOM      5  C   UNL d   1     -49.033  12.193  21.886  0.00  0.00     0.045 A 
ATOM      6  C   UNL d   1     -49.039  11.924  23.383  0.00  0.00    -0.007 A 
ATOM      7  C   UNL d   1     -48.794  11.686  22.988  0.00  0.00    -0.007 A 
ATOM      8  C   UNL d   1     -48.671  11.663  22.262  0.00  0.00    -0.022 A 
ATOM      9  C   UNL d   1     -48.568  11.268  23.697  0.00  0.00    -0.001 A 
ATOM     10  C   UNL d   1     -48.859  11.871  22.434  0.00  0.00    -0.022 A 
ENDROOT
BRANCH   1  11
ATOM     11  C   UNL d   1     -50.243  13.503  23.114  0.00  0.00     0.248 C 
ATOM     12  N   UNL d   1     -50.194  14.284  23.264  0.00  0.00    -0.275 N 
ATOM     13  C   UNL d   1     -50.826  14.678  23.543  0.00  0.00     0.083 A 
ATOM     14  C   UNL d   1     -49.500  14.661  23.129  0.00  0.00     0.083 A 
ATOM     15  C   UNL d   1     -50.769  15.486  23.696  0.00  0.00     0.019 A 
ATOM     16  C   UNL d   1     -50.079  15.881  23.567  0.00  0.00     0.003 A 
ATOM     17  C   UNL d   1     -49.443  15.469  23.283  0.00  0.00     0.019 A 
ATOM     18  O   UNL d   1     -50.900  12.866  23.183  0.00  0.00    -0.271 OA
ENDBRANCH   1  11
TORSDOF 1
ENDMDL
MODEL 4
REMARK VINA RESULT:      -8.3      1.689      3.214
REMARK  1 active torsions:
REMARK  status: ('A' for Active; 'I' for Inactive)
REMARK    1  A    between atoms: C_2  and  C_1 
REMARK       I    between atoms: N_3  and  C_2 
ROOT
ATOM      1  C   UNL d   1     -47.700  13.464  22.648  0.00  0.00     0.109 A 
ATOM      2  C   UNL d   1     -47.147  13.974  22.574  0.00  0.00     0.026 A 
ATOM      3  C   UNL d   1     -47.494  12.875  22.995  0.00  0.00    -0.014 A 
ATOM      4  C   UNL d   1     -47.843  12.705  22.969  0.00  0.00    -0.014 A 
ATOM      5  C   UNL d   1     -46.451  13.677  22.932  0.00  0.00     0.045 A 
ATOM      6  C   UNL d   1     -47.277  12.446  23.269  0.00  0.00    -0.007 A 
ATOM      7  C   UNL d   1     -46.778  12.566  23.365  0.00  0.00    -0.007 A 
ATOM      8  C   UNL d   1     -46.239  13.063  23.293  0.00  0.00    -0.022 A 
ATOM      9  C   UNL d   1     -46.906  11.791  23.698  0.00  0.00    -0.001 A 
ATOM     10  C   UNL d   1     -46.550  13.079  23.189  0.00  0.00    -0.022 A 
ENDROOT
BRANCH   1  11
ATOM     11  C   UNL d   1     -48.520  13.677  22.292  0.00  0.00     0.248 C 
ATOM     12  N   UNL d   1     -49.121  14.168  22.476  0.00  0.00    -0.275 N 
ATOM     13  C   UNL d   1     -49.767  14.199  22.013  0.00  0.00     0.083 A 
ATOM     14  C   UNL d   1     -49.060  14.626  23.130  0.00  0.00     0.083 A 
ATOM     15  C   UNL d   1     -50.385  14.709  22.208  0.00  0.00     0.019 A 
ATOM     16  C   UNL d   1     -50.341  15.176  22.863  0.00  0.00     0.003 A 
ATOM     17  C   UNL d   1     -49.678  15.135  23.325  0.00  0.00     0.019 A 
ATOM     18  O   UNL d   1     -48.353  13.074  21.622  0.00  0.00    -0.271 OA
ENDBRANCH   1  11
TORSDOF 1
ENDMDL
