MODEL 1
REMARK VINA RESULT:      -6.9      0.000      0.000
REMARK  3 active torsions:
REMARK  status: ('A' for Active; 'I' for Inactive)
REMARK       I    between atoms: N_2  and  C_1 
REMARK    1  A    between atoms: C_4  and  C_1 
REMARK    2  A    between atoms: C_3  and  N_2 
REMARK    3  A    between atoms: S_11  and  C_7 
ROOT
ATOM      1  C   UNL d   1     -48.876  11.994  22.688  0.00  0.00     0.064 A 
ATOM      2  C   UNL d   1     -49.673  12.151  22.826  0.00  0.00     0.030 A 
ATOM      3  C   UNL d   1     -48.543  12.154  21.944  0.00  0.00     0.005 A 
ATOM      4  C   UNL d   1     -50.142  12.467  22.225  0.00  0.00     0.006 A 
ATOM      5  C   UNL d   1     -49.013  12.470  21.344  0.00  0.00     0.000 A 
ATOM      6  C   UNL d   1     -49.815  12.626  21.488  0.00  0.00     0.001 A 
ENDROOT
BRANCH   1   7
ATOM      7  C   UNL d   1     -48.407  11.679  23.289  0.00  0.00     0.281 C 
ATOM      8  N   UNL d   1     -47.742  12.099  23.556  0.00  0.00    -0.183 NA
ATOM      9  O   UNL d   1     -48.597  10.950  23.621  0.00  0.00    -0.265 OA
BRANCH   8  10
ATOM     10  C   UNL d   1     -47.552  12.817  23.230  0.00  0.00     0.197 A 
ATOM     11  N   UNL d   1     -47.884  13.549  23.437  0.00  0.00    -0.219 NA
ATOM     12  C   UNL d   1     -47.531  14.137  22.968  0.00  0.00     0.108 A 
ATOM     13  C   UNL d   1     -46.977  13.772  22.467  0.00  0.00     0.059 A 
ATOM     14  S   UNL d   1     -46.993  12.961  22.632  0.00  0.00    -0.046 SA
ENDBRANCH   8  10
ENDBRANCH   1   7
BRANCH   2  15
ATOM     15  S   UNL d   1     -50.000  11.991  23.565  0.00  0.00    -0.113 SA
ATOM     16  C   UNL d   1     -50.812  12.064  23.677  0.00  0.00     0.074 C 
ENDBRANCH   2  15
TORSDOF 3
ENDMDL
MODEL 2
REMARK VINA RESULT:      -6.7      1.590      2.143
REMARK  3 active torsions:
REMARK  status: ('A' for Active; 'I' for Inactive)
REMARK       I    between atoms: N_2  and  C_1 
REMARK    1  A    between atoms: C_4  and  C_1 
REMARK    2  A    between atoms: C_3  and  N_2 
REMARK    3  A    between atoms: S_11  and  C_7 
ROOT
ATOM      1  C   UNL d   1     -48.095  13.133  22.364  0.00  0.00     0.064 A 
ATOM      2  C   UNL d   1     -48.225  12.406  22.730  0.00  0.00     0.030 A 
ATOM      3  C   UNL d   1     -48.558  13.359  21.713  0.00  0.00     0.005 A 
ATOM      4  C   UNL d   1     -48.814  11.902  22.450  0.00  0.00     0.006 A 
ATOM      5  C   UNL d   1     -49.148  12.855  21.433  0.00  0.00     0.000 A 
ATOM      6  C   UNL d   1     -49.274  12.123  21.805  0.00  0.00     0.001 A 
ENDROOT
BRANCH   1   7
ATOM      7  C   UNL d   1     -47.505  13.637  22.644  0.00  0.00     0.281 C 
ATOM      8  N   UNL d   1     -47.707  14.395  22.917  0.00  0.00    -0.183 NA
ATOM      9  O   UNL d   1     -46.721  13.389  22.653  0.00  0.00    -0.265 OA
BRANCH   8  10
ATOM     10  C   UNL d   1     -48.480  14.642  22.909  0.00  0.00     0.197 A 
ATOM     11  N   UNL d   1     -49.044  14.494  23.499  0.00  0.00    -0.219 NA
ATOM     12  C   UNL d   1     -49.760  14.846  23.269  0.00  0.00     0.108 A 
ATOM     13  C   UNL d   1     -49.644  15.216  22.533  0.00  0.00     0.059 A 
ATOM     14  S   UNL d   1     -48.855  15.088  22.316  0.00  0.00    -0.046 SA
ENDBRANCH   8  10
ENDBRANCH   1   7
BRANCH   2  15
ATOM     15  S   UNL d   1     -47.764  12.185  23.376  0.00  0.00    -0.113 SA
ATOM     16  C   UNL d   1     -47.846  11.432  23.698  0.00  0.00     0.074 C 
ENDBRANCH   2  15
TORSDOF 3
ENDMDL
MODEL 3
REMARK VINA RESULT:      -6.6      1.466      2.905
REMARK  3 active torsions:
REMARK  status: ('A' for Active; 'I' for Inactive)
REMARK       I    between atoms: N_2  and  C_1 
REMARK    1  A    between atoms: C_4  and  C_1 
REMARK    2  A    between atoms: C_3  and  N_2 
REMARK    3  A    between atoms: S_11  and  C_7 
ROOT
ATOM      1  C   UNL d   1     -48.732  13.548  22.030  0.00  0.00     0.064 A 
ATOM      2  C   UNL d   1     -48.108  13.868  22.460  0.00  0.00     0.030 A 
ATOM      3  C   UNL d   1     -49.453  13.958  21.974  0.00  0.00     0.005 A 
ATOM      4  C   UNL d   1     -48.196  14.597  22.837  0.00  0.00     0.006 A 
ATOM      5  C   UNL d   1     -49.541  14.686  22.351  0.00  0.00     0.000 A 
ATOM      6  C   UNL d   1     -48.908  15.005  22.784  0.00  0.00     0.001 A 
ENDROOT
BRANCH   1   7
ATOM      7  C   UNL d   1     -48.645  12.819  21.653  0.00  0.00     0.281 C 
ATOM      8  N   UNL d   1     -49.117  12.177  21.884  0.00  0.00    -0.183 NA
ATOM      9  O   UNL d   1     -48.092  12.731  21.051  0.00  0.00    -0.265 OA
BRANCH   8  10
ATOM     10  C   UNL d   1     -49.664  12.261  22.478  0.00  0.00     0.197 A 
ATOM     11  N   UNL d   1     -49.524  12.150  23.288  0.00  0.00    -0.219 NA
ATOM     12  C   UNL d   1     -50.233  12.293  23.697  0.00  0.00     0.108 A 
ATOM     13  C   UNL d   1     -50.818  12.494  23.141  0.00  0.00     0.059 A 
ATOM     14  S   UNL d   1     -50.463  12.473  22.393  0.00  0.00    -0.046 SA
ENDBRANCH   8  10
ENDBRANCH   1   7
BRANCH   2  15
ATOM     15  S   UNL d   1     -47.395  13.459  22.513  0.00  0.00    -0.113 SA
ATOM     16  C   UNL d   1     -46.743  13.816  22.867  0.00  0.00     0.074 C 
ENDBRANCH   2  15
TORSDOF 3
ENDMDL
MODEL 4
REMARK VINA RESULT:      -6.6      1.360      2.862
REMARK  3 active torsions:
REMARK  status: ('A' for Active; 'I' for Inactive)
REMARK       I    between atoms: N_2  and  C_1 
REMARK    1  A    between atoms: C_4  and  C_1 
REMARK    2  A    between atoms: C_3  and  N_2 
REMARK    3  A    between atoms: S_11  and  C_7 
ROOT
ATOM      1  C   UNL d   1     -48.243  12.500  22.395  0.00  0.00     0.064 A 
ATOM      2  C   UNL d   1     -47.584  12.778  22.803  0.00  0.00     0.030 A 
ATOM      3  C   UNL d   1     -48.618  11.800  22.639  0.00  0.00     0.005 A 
ATOM      4  C   UNL d   1     -47.294  12.363  23.454  0.00  0.00     0.006 A 
ATOM      5  C   UNL d   1     -48.328  11.384  23.290  0.00  0.00     0.000 A 
ATOM      6  C   UNL d   1     -47.663  11.669  23.698  0.00  0.00     0.001 A 
ENDROOT
BRANCH   1   7
ATOM      7  C   UNL d   1     -48.532  12.916  21.744  0.00  0.00     0.281 C 
ATOM      8  N   UNL d   1     -49.297  13.238  21.768  0.00  0.00    -0.183 NA
ATOM      9  O   UNL d   1     -48.065  13.009  21.074  0.00  0.00    -0.265 OA
BRANCH   8  10
ATOM     10  C   UNL d   1     -49.761  13.147  22.428  0.00  0.00     0.197 A 
ATOM     11  N   UNL d   1     -49.763  13.643  23.094  0.00  0.00    -0.219 NA
ATOM     12  C   UNL d   1     -50.319  13.348  23.636  0.00  0.00     0.108 A 
ATOM     13  C   UNL d   1     -50.664  12.666  23.310  0.00  0.00     0.059 A 
ATOM     14  S   UNL d   1     -50.318  12.547  22.567  0.00  0.00    -0.046 SA
ENDBRANCH   8  10
ENDBRANCH   1   7
BRANCH   2  15
ATOM     15  S   UNL d   1     -47.214  13.473  22.559  0.00  0.00    -0.113 SA
ATOM     16  C   UNL d   1     -46.514  13.712  22.919  0.00  0.00     0.074 C 
ENDBRANCH   2  15
TORSDOF 3
ENDMDL
MODEL 5
REMARK VINA RESULT:      -6.5      1.275      1.737
REMARK  3 active torsions:
REMARK  status: ('A' for Active; 'I' for Inactive)
REMARK       I    between atoms: N_2  and  C_1 
REMARK    1  A    between atoms: C_4  and  C_1 
REMARK    2  A    between atoms: C_3  and  N_2 
REMARK    3  A    between atoms: S_11  and  C_7 
ROOT
ATOM      1  C   UNL d   1     -49.200  12.294  22.352  0.00  0.00     0.064 A 
ATOM      2  C   UNL d   1     -49.763  12.237  22.950  0.00  0.00     0.030 A 
ATOM      3  C   UNL d   1     -48.475  11.893  22.423  0.00  0.00     0.005 A 
ATOM      4  C   UNL d   1     -49.609  11.783  23.622  0.00  0.00     0.006 A 
ATOM      5  C   UNL d   1     -48.322  11.439  23.095  0.00  0.00     0.000 A 
ATOM      6  C   UNL d   1     -48.893  11.385  23.695  0.00  0.00     0.001 A 
ENDROOT
BRANCH   1   7
ATOM      7  C   UNL d   1     -49.354  12.748  21.681  0.00  0.00     0.281 C 
ATOM      8  N   UNL d   1     -48.873  13.403  21.508  0.00  0.00    -0.183 NA
ATOM      9  O   UNL d   1     -49.980  12.552  21.185  0.00  0.00    -0.265 OA
BRANCH   8  10
ATOM     10  C   UNL d   1     -48.254  13.599  21.995  0.00  0.00     0.197 A 
ATOM     11  N   UNL d   1     -47.505  13.243  21.997  0.00  0.00    -0.219 NA
ATOM     12  C   UNL d   1     -47.043  13.611  22.582  0.00  0.00     0.108 A 
ATOM     13  C   UNL d   1     -47.505  14.199  22.946  0.00  0.00     0.059 A 
ATOM     14  S   UNL d   1     -48.249  14.187  22.582  0.00  0.00    -0.046 SA
ENDBRANCH   8  10
ENDBRANCH   1   7
BRANCH   2  15
ATOM     15  S   UNL d   1     -50.480  12.636  22.876  0.00  0.00    -0.113 SA
ATOM     16  C   UNL d   1     -51.064  12.536  23.448  0.00  0.00     0.074 C 
ENDBRANCH   2  15
TORSDOF 3
ENDMDL
MODEL 6
REMARK VINA RESULT:      -6.5      1.510      1.836
REMARK  3 active torsions:
REMARK  status: ('A' for Active; 'I' for Inactive)
REMARK       I    between atoms: N_2  and  C_1 
REMARK    1  A    between atoms: C_4  and  C_1 
REMARK    2  A    between atoms: C_3  and  N_2 
REMARK    3  A    between atoms: S_11  and  C_7 
ROOT
ATOM      1  C   UNL d   1     -48.685  13.778  22.296  0.00  0.00     0.064 A 
ATOM      2  C   UNL d   1     -49.380  13.463  22.605  0.00  0.00     0.030 A 
ATOM      3  C   UNL d   1     -48.295  13.394  21.671  0.00  0.00     0.005 A 
ATOM      4  C   UNL d   1     -49.692  12.765  22.294  0.00  0.00     0.006 A 
ATOM      5  C   UNL d   1     -48.607  12.696  21.360  0.00  0.00     0.000 A 
ATOM      6  C   UNL d   1     -49.309  12.382  21.674  0.00  0.00     0.001 A 
ENDROOT
BRANCH   1   7
ATOM      7  C   UNL d   1     -48.373  14.475  22.607  0.00  0.00     0.281 C 
ATOM      8  N   UNL d   1     -47.621  14.469  22.961  0.00  0.00    -0.183 NA
ATOM      9  O   UNL d   1     -48.805  15.174  22.567  0.00  0.00    -0.265 OA
BRANCH   8  10
ATOM     10  C   UNL d   1     -47.193  13.781  23.002  0.00  0.00     0.197 A 
ATOM     11  N   UNL d   1     -47.261  13.199  23.589  0.00  0.00    -0.219 NA
ATOM     12  C   UNL d   1     -46.721  12.592  23.417  0.00  0.00     0.108 A 
ATOM     13  C   UNL d   1     -46.313  12.794  22.722  0.00  0.00     0.059 A 
ATOM     14  S   UNL d   1     -46.607  13.526  22.470  0.00  0.00    -0.046 SA
ENDBRANCH   8  10
ENDBRANCH   1   7
BRANCH   2  15
ATOM     15  S   UNL d   1     -49.764  13.846  23.225  0.00  0.00    -0.113 SA
ATOM     16  C   UNL d   1     -50.504  13.584  23.473  0.00  0.00     0.074 C 
ENDBRANCH   2  15
TORSDOF 3
ENDMDL
