MODEL 1
REMARK VINA RESULT:     136.5      0.000      0.000
REMARK  5 active torsions:
REMARK  status: ('A' for Active; 'I' for Inactive)
REMARK       I    between atoms: C_4  and  N_1 
REMARK    1  A    between atoms: C_8  and  C_3 
REMARK    2  A    between atoms: C_9  and  C_4 
REMARK    3  A    between atoms: S_5  and  N_10 
REMARK    4  A    between atoms: C_11  and  C_6 
REMARK    5  A    between atoms: N_10  and  C_22 
ROOT
ATOM      1  N   UNL d   1      60.966  44.470  50.082  0.00  0.00    -0.193 N 
ATOM      2  N   UNL d   1      60.723  45.260  50.037  0.00  0.00    -0.163 NA
ATOM      3  C   UNL d   1      61.697  44.455  50.474  0.00  0.00     0.090 A 
ATOM      4  C   UNL d   1      60.551  43.821  49.787  0.00  0.00     0.303 C 
ATOM      5  C   UNL d   1      61.297  45.728  50.398  0.00  0.00     0.103 A 
ATOM      6  C   UNL d   1      61.896  45.228  50.666  0.00  0.00     0.040 A 
ATOM      7  O   UNL d   1      60.870  43.062  49.876  0.00  0.00    -0.263 OA
ENDROOT
BRANCH   5   8
ATOM      8  C   UNL d   1      61.277  46.546  50.476  0.00  0.00     0.019 A 
ATOM      9  C   UNL d   1      60.831  46.885  51.072  0.00  0.00     0.003 A 
ATOM     10  C   UNL d   1      60.810  47.709  51.151  0.00  0.00     0.020 A 
ATOM     11  C   UNL d   1      61.239  48.188  50.628  0.00  0.00     0.093 A 
ATOM     12  C   UNL d   1      61.687  47.837  50.029  0.00  0.00     0.020 A 
ATOM     13  C   UNL d   1      61.708  47.023  49.950  0.00  0.00     0.003 A 
BRANCH  11  14
ATOM     14  N   UNL d   1      61.213  49.006  50.714  0.00  0.00    -0.162 NA
BRANCH  14  15
ATOM     15  S   UNL d   1      60.510  49.391  50.880  0.00  0.00     0.266 S 
ATOM     16  O   UNL d   1      60.378  49.234  50.078  0.00  0.00    -0.203 OA
ATOM     17  O   UNL d   1      59.763  49.706  50.719  0.00  0.00    -0.203 OA
ATOM     18  C   UNL d   1      60.618  49.558  51.677  0.00  0.00     0.165 C 
ENDBRANCH  14  15
ENDBRANCH  11  14
ENDBRANCH   5   8
BRANCH   3  19
ATOM     19  C   UNL d   1      62.135  43.784  50.637  0.00  0.00     0.045 A 
ATOM     20  C   UNL d   1      62.018  43.400  51.371  0.00  0.00     0.141 A 
ATOM     21  F   UNL d   1      61.470  43.704  51.909  0.00  0.00    -0.204 F 
ATOM     22  C   UNL d   1      62.457  42.719  51.546  0.00  0.00     0.030 A 
ATOM     23  C   UNL d   1      62.973  42.442  51.026  0.00  0.00     0.002 A 
ATOM     24  C   UNL d   1      63.091  42.825  50.291  0.00  0.00     0.000 A 
ATOM     25  C   UNL d   1      62.690  43.499  50.061  0.00  0.00     0.004 A 
ENDBRANCH   3  19
BRANCH   4  26
ATOM     26  C   UNL d   1      59.837  43.928  49.414  0.00  0.00     0.158 A 
ATOM     27  O   UNL d   1      59.505  44.668  49.188  0.00  0.00    -0.300 OA
ATOM     28  C   UNL d   1      58.778  44.512  48.828  0.00  0.00     0.123 A 
ATOM     29  C   UNL d   1      58.660  43.700  48.829  0.00  0.00     0.029 A 
ATOM     30  C   UNL d   1      59.319  43.354  49.193  0.00  0.00     0.032 A 
ENDBRANCH   4  26
TORSDOF 5
ENDMDL
MODEL 2
REMARK VINA RESULT:     138.6      3.857      5.725
REMARK  5 active torsions:
REMARK  status: ('A' for Active; 'I' for Inactive)
REMARK       I    between atoms: C_4  and  N_1 
REMARK    1  A    between atoms: C_8  and  C_3 
REMARK    2  A    between atoms: C_9  and  C_4 
REMARK    3  A    between atoms: S_5  and  N_10 
REMARK    4  A    between atoms: C_11  and  C_6 
REMARK    5  A    between atoms: N_10  and  C_22 
ROOT
ATOM      1  N   UNL d   1      58.300  48.403  50.528  0.00  0.00    -0.193 N 
ATOM      2  N   UNL d   1      57.744  47.790  50.528  0.00  0.00    -0.163 NA
ATOM      3  C   UNL d   1      58.980  48.124  50.914  0.00  0.00     0.090 A 
ATOM      4  C   UNL d   1      58.190  49.153  50.202  0.00  0.00     0.303 C 
ATOM      5  C   UNL d   1      58.076  47.139  50.909  0.00  0.00     0.103 A 
ATOM      6  C   UNL d   1      58.838  47.350  51.145  0.00  0.00     0.040 A 
ATOM      7  O   UNL d   1      58.803  49.707  50.248  0.00  0.00    -0.263 OA
ENDROOT
BRANCH   5   8
ATOM      8  C   UNL d   1      57.713  46.412  51.031  0.00  0.00     0.019 A 
ATOM      9  C   UNL d   1      57.959  45.934  51.647  0.00  0.00     0.003 A 
ATOM     10  C   UNL d   1      57.593  45.201  51.770  0.00  0.00     0.020 A 
ATOM     11  C   UNL d   1      56.980  44.954  51.271  0.00  0.00     0.093 A 
ATOM     12  C   UNL d   1      56.738  45.443  50.651  0.00  0.00     0.020 A 
ATOM     13  C   UNL d   1      57.098  46.167  50.528  0.00  0.00     0.003 A 
BRANCH  11  14
ATOM     14  N   UNL d   1      56.622  44.224  51.400  0.00  0.00    -0.162 NA
BRANCH  14  15
ATOM     15  S   UNL d   1      56.430  43.976  52.156  0.00  0.00     0.266 S 
ATOM     16  O   UNL d   1      56.816  43.291  51.897  0.00  0.00    -0.203 OA
ATOM     17  O   UNL d   1      56.397  43.455  52.797  0.00  0.00    -0.203 OA
ATOM     18  C   UNL d   1      56.043  44.645  52.437  0.00  0.00     0.165 C 
ENDBRANCH  14  15
ENDBRANCH  11  14
ENDBRANCH   5   8
BRANCH   3  19
ATOM     19  C   UNL d   1      59.665  48.552  51.037  0.00  0.00     0.045 A 
ATOM     20  C   UNL d   1      60.325  48.396  50.548  0.00  0.00     0.141 A 
ATOM     21  F   UNL d   1      60.272  47.820  49.959  0.00  0.00    -0.204 F 
ATOM     22  C   UNL d   1      61.026  48.825  50.665  0.00  0.00     0.030 A 
ATOM     23  C   UNL d   1      61.063  49.368  51.228  0.00  0.00     0.002 A 
ATOM     24  C   UNL d   1      60.402  49.525  51.718  0.00  0.00     0.000 A 
ATOM     25  C   UNL d   1      59.685  49.137  51.652  0.00  0.00     0.004 A 
ENDBRANCH   3  19
BRANCH   4  26
ATOM     26  C   UNL d   1      57.488  49.342  49.840  0.00  0.00     0.158 A 
ATOM     27  O   UNL d   1      57.356  49.385  49.010  0.00  0.00    -0.300 OA
ATOM     28  C   UNL d   1      56.566  49.595  48.897  0.00  0.00     0.123 A 
ATOM     29  C   UNL d   1      56.214  49.680  49.633  0.00  0.00     0.029 A 
ATOM     30  C   UNL d   1      56.793  49.521  50.204  0.00  0.00     0.032 A 
ENDBRANCH   4  26
TORSDOF 5
ENDMDL
