MODEL 1
REMARK VINA RESULT:      15.4      0.000      0.000
REMARK  1 active torsions:
REMARK  status: ('A' for Active; 'I' for Inactive)
REMARK       I    between atoms: N_2  and  C_1 
REMARK       I    between atoms: N_4  and  C_1 
REMARK    1  A    between atoms: C_5  and  N_2 
ROOT
ATOM      1  N   UNL d   1      58.116  49.708  51.108  0.00  0.00    -0.242 NA
ATOM      2  C   UNL d   1      59.199  49.708  50.139  0.00  0.00     0.105 A 
ATOM      3  C   UNL d   1      57.831  49.703  49.677  0.00  0.00     0.019 A 
ATOM      4  C   UNL d   1      57.565  49.707  50.473  0.00  0.00     0.082 A 
ATOM      5  C   UNL d   1      58.652  49.705  49.516  0.00  0.00     0.022 A 
ATOM      6  C   UNL d   1      58.929  49.706  50.934  0.00  0.00     0.118 A 
ATOM      7  C   UNL d   1      57.280  49.708  49.057  0.00  0.00     0.002 A 
ATOM      8  C   UNL d   1      56.754  49.708  50.640  0.00  0.00     0.019 A 
ATOM      9  C   UNL d   1      56.460  49.708  49.226  0.00  0.00     0.000 A 
ATOM     10  C   UNL d   1      56.196  49.706  50.012  0.00  0.00     0.002 A 
ENDROOT
BRANCH   2  11
ATOM     11  N   UNL d   1      60.012  49.698  49.978  0.00  0.00    -0.191 NA
ATOM     12  C   UNL d   1      60.563  49.694  50.598  0.00  0.00     0.354 C 
ATOM     13  N   UNL d   1      60.301  49.693  51.391  0.00  0.00    -0.253 N 
ATOM     14  O   UNL d   1      61.388  49.693  50.435  0.00  0.00    -0.244 OA
ATOM     15  C   UNL d   1      59.484  49.706  51.554  0.00  0.00     0.104 C 
ATOM     16  C   UNL d   1      60.857  49.697  52.011  0.00  0.00     0.104 C 
ENDBRANCH   2  11
TORSDOF 1
ENDMDL
MODEL 2
REMARK VINA RESULT:      17.5      0.780      1.333
REMARK  1 active torsions:
REMARK  status: ('A' for Active; 'I' for Inactive)
REMARK       I    between atoms: N_2  and  C_1 
REMARK       I    between atoms: N_4  and  C_1 
REMARK    1  A    between atoms: C_5  and  N_2 
ROOT
ATOM      1  N   UNL d   1      58.644  49.705  49.673  0.00  0.00    -0.242 NA
ATOM      2  C   UNL d   1      58.856  49.662  51.110  0.00  0.00     0.105 A 
ATOM      3  C   UNL d   1      57.510  49.661  50.588  0.00  0.00     0.019 A 
ATOM      4  C   UNL d   1      57.815  49.687  49.807  0.00  0.00     0.082 A 
ATOM      5  C   UNL d   1      58.037  49.646  51.237  0.00  0.00     0.022 A 
ATOM      6  C   UNL d   1      59.158  49.695  50.327  0.00  0.00     0.118 A 
ATOM      7  C   UNL d   1      56.689  49.637  50.711  0.00  0.00     0.002 A 
ATOM      8  C   UNL d   1      57.299  49.699  49.160  0.00  0.00     0.019 A 
ATOM      9  C   UNL d   1      56.168  49.649  50.056  0.00  0.00     0.000 A 
ATOM     10  C   UNL d   1      56.468  49.681  49.284  0.00  0.00     0.002 A 
ENDROOT
BRANCH   2  11
ATOM     11  N   UNL d   1      59.377  49.660  51.754  0.00  0.00    -0.191 NA
ATOM     12  C   UNL d   1      60.197  49.674  51.631  0.00  0.00     0.354 C 
ATOM     13  N   UNL d   1      60.504  49.698  50.854  0.00  0.00    -0.253 N 
ATOM     14  O   UNL d   1      60.727  49.663  52.285  0.00  0.00    -0.244 OA
ATOM     15  C   UNL d   1      59.982  49.696  50.206  0.00  0.00     0.104 C 
ATOM     16  C   UNL d   1      61.328  49.703  50.734  0.00  0.00     0.104 C 
ENDBRANCH   2  11
TORSDOF 1
ENDMDL
