MODEL 1
REMARK VINA RESULT:      -9.5      0.000      0.000
REMARK  8 active torsions:
REMARK  status: ('A' for Active; 'I' for Inactive)
REMARK    1  A    between atoms: C_14  and  N_1 
REMARK    2  A    between atoms: S_10  and  C_2 
REMARK    3  A    between atoms: C_7  and  C_9 
REMARK       I    between atoms: N_8  and  C_7 
REMARK    4  A    between atoms: C_26  and  S_10 
REMARK    5  A    between atoms: C_13  and  C_18 
REMARK    6  A    between atoms: C_16  and  C_26 
REMARK    7  A    between atoms: O_28  and  C_16 
REMARK    8  A    between atoms: C_31  and  O_28 
ROOT
ATOM      1  N   UNL d   1      52.968  33.397  53.583  0.00  0.00    -0.254 N 
ATOM      2  C   UNL d   1      52.594  32.748  53.262  0.00  0.00     0.182 A 
ATOM      3  C   UNL d   1      52.627  34.149  53.510  0.00  0.00     0.268 A 
ATOM      4  N   UNL d   1      51.881  32.835  52.868  0.00  0.00    -0.222 NA
ATOM      5  C   UNL d   1      51.916  34.242  53.118  0.00  0.00     0.074 A 
ATOM      6  C   UNL d   1      51.531  33.582  52.790  0.00  0.00     0.088 A 
ATOM      7  C   UNL d   1      50.465  34.423  52.317  0.00  0.00     0.058 A 
ATOM      8  C   UNL d   1      50.808  33.668  52.390  0.00  0.00     0.024 A 
ATOM      9  C   UNL d   1      51.565  34.992  53.039  0.00  0.00     0.006 A 
ATOM     10  O   UNL d   1      53.012  34.808  53.838  0.00  0.00    -0.267 OA
ATOM     11  C   UNL d   1      50.853  35.075  52.646  0.00  0.00     0.005 A 
ENDROOT
BRANCH   7  12
ATOM     12  C   UNL d   1      49.749  34.504  51.920  0.00  0.00     0.265 C 
ATOM     13  N   UNL d   1      49.130  34.904  52.247  0.00  0.00    -0.272 N 
ATOM     14  C   UNL d   1      49.230  35.242  53.010  0.00  0.00     0.083 A 
ATOM     15  C   UNL d   1      48.422  34.985  51.858  0.00  0.00     0.083 A 
ATOM     16  C   UNL d   1      48.594  35.650  53.341  0.00  0.00     0.024 A 
ATOM     17  C   UNL d   1      47.876  35.733  52.947  0.00  0.00     0.062 A 
ATOM     18  C   UNL d   1      47.788  35.391  52.185  0.00  0.00     0.024 A 
ATOM     19  O   UNL d   1      49.677  34.152  51.150  0.00  0.00    -0.267 OA
BRANCH  17  20
ATOM     20  C   UNL d   1      47.249  36.143  53.289  0.00  0.00     0.297 C 
ATOM     21  O   UNL d   1      47.036  35.992  54.076  0.00  0.00    -0.264 OA
ATOM     22  N   UNL d   1      46.827  36.709  52.850  0.00  0.00    -0.102 N 
ENDBRANCH  17  20
ENDBRANCH   7  12
BRANCH   2  23
ATOM     23  S   UNL d   1      52.938  31.989  53.336  0.00  0.00    -0.044 SA
BRANCH  23  24
ATOM     24  C   UNL d   1      52.523  31.332  53.084  0.00  0.00     0.107 C 
BRANCH  24  25
ATOM     25  C   UNL d   1      52.904  30.591  53.088  0.00  0.00     0.307 C 
ATOM     26  O   UNL d   1      53.254  30.296  52.404  0.00  0.00    -0.258 OA
BRANCH  25  27
ATOM     27  O   UNL d   1      52.925  30.156  53.794  0.00  0.00    -0.271 OA
BRANCH  27  28
ATOM     28  C   UNL d   1      53.264  29.399  53.783  0.00  0.00     0.126 C 
ATOM     29  C   UNL d   1      53.278  28.982  54.470  0.00  0.00     0.029 C 
ENDBRANCH  27  28
ENDBRANCH  25  27
ENDBRANCH  24  25
ENDBRANCH  23  24
ENDBRANCH   2  23
BRANCH   1  30
ATOM     30  C   UNL d   1      53.681  33.310  53.977  0.00  0.00     0.069 A 
ATOM     31  C   UNL d   1      54.383  33.320  53.564  0.00  0.00     0.018 A 
ATOM     32  C   UNL d   1      55.100  33.234  53.958  0.00  0.00     0.002 A 
ATOM     33  C   UNL d   1      55.105  33.135  54.790  0.00  0.00     0.000 A 
ATOM     34  C   UNL d   1      54.394  33.126  55.199  0.00  0.00     0.002 A 
ATOM     35  C   UNL d   1      53.670  33.213  54.808  0.00  0.00     0.018 A 
ENDBRANCH   1  30
TORSDOF 8
ENDMDL
