MODEL 1
REMARK VINA RESULT:      -6.6      0.000      0.000
REMARK  5 active torsions:
REMARK  status: ('A' for Active; 'I' for Inactive)
REMARK    1  A    between atoms: N_3  and  C_1 
REMARK       I    between atoms: C_9  and  N_3 
REMARK       I    between atoms: N_7  and  C_8 
REMARK    2  A    between atoms: C_8  and  C_14 
REMARK    3  A    between atoms: C_15  and  C_9 
REMARK    4  A    between atoms: S_12  and  C_15 
REMARK    5  A    between atoms: C_14  and  S_12 
ROOT
ATOM      1  N   UNL d   1     -48.927  11.841  22.895  0.00  0.00    -0.183 NA
ATOM      2  C   UNL d   1     -48.268  12.102  23.324  0.00  0.00     0.287 C 
ATOM      3  O   UNL d   1     -48.228  12.888  23.585  0.00  0.00    -0.265 OA
ENDROOT
BRANCH   2   4
ATOM      4  C   UNL d   1     -47.653  11.589  23.495  0.00  0.00     0.098 C 
BRANCH   4   5
ATOM      5  S   UNL d   1     -46.887  11.879  23.630  0.00  0.00    -0.076 SA
BRANCH   5   6
ATOM      6  C   UNL d   1     -46.246  11.359  23.659  0.00  0.00     0.097 C 
BRANCH   6   7
ATOM      7  C   UNL d   1     -45.515  11.581  23.351  0.00  0.00     0.271 C 
ATOM      8  N   UNL d   1     -44.892  11.048  23.362  0.00  0.00    -0.272 N 
ATOM      9  C   UNL d   1     -45.016  10.299  23.685  0.00  0.00     0.083 A 
ATOM     10  C   UNL d   1     -44.169  11.262  23.060  0.00  0.00     0.083 A 
ATOM     11  C   UNL d   1     -44.389   9.760  23.698  0.00  0.00     0.019 A 
ATOM     12  C   UNL d   1     -43.660   9.970  23.395  0.00  0.00     0.003 A 
ATOM     13  C   UNL d   1     -43.540  10.722  23.073  0.00  0.00     0.019 A 
ATOM     14  O   UNL d   1     -45.413  12.334  23.033  0.00  0.00    -0.266 OA
ENDBRANCH   6   7
ENDBRANCH   5   6
ENDBRANCH   4   5
ENDBRANCH   2   4
BRANCH   1  15
ATOM     15  C   UNL d   1     -49.418  12.503  22.836  0.00  0.00     0.182 A 
ATOM     16  N   UNL d   1     -49.761  12.797  22.143  0.00  0.00    -0.283 N 
ATOM     17  C   UNL d   1     -50.209  13.467  22.338  0.00  0.00     0.072 A 
ATOM     18  C   UNL d   1     -49.669  12.476  21.396  0.00  0.00     0.101 C 
ATOM     19  C   UNL d   1     -50.665  13.979  21.888  0.00  0.00     0.017 A 
ATOM     20  C   UNL d   1     -50.143  13.587  23.153  0.00  0.00     0.048 A 
ATOM     21  C   UNL d   1     -51.052  14.604  22.238  0.00  0.00    -0.011 A 
ATOM     22  C   UNL d   1     -50.986  14.725  23.052  0.00  0.00     0.027 A 
ATOM     23  C   UNL d   1     -50.533  14.220  23.518  0.00  0.00    -0.004 A 
ATOM     24  S   UNL d   1     -49.654  12.993  23.464  0.00  0.00    -0.048 SA
ENDBRANCH   1  15
TORSDOF 5
ENDMDL
MODEL 2
REMARK VINA RESULT:      -5.4      9.044     10.404
REMARK  5 active torsions:
REMARK  status: ('A' for Active; 'I' for Inactive)
REMARK    1  A    between atoms: N_3  and  C_1 
REMARK       I    between atoms: C_9  and  N_3 
REMARK       I    between atoms: N_7  and  C_8 
REMARK    2  A    between atoms: C_8  and  C_14 
REMARK    3  A    between atoms: C_15  and  C_9 
REMARK    4  A    between atoms: S_12  and  C_15 
REMARK    5  A    between atoms: C_14  and  S_12 
ROOT
ATOM      1  N   UNL d   1     -39.876  13.809  18.371  0.00  0.00    -0.183 NA
ATOM      2  C   UNL d   1     -39.793  14.485  18.844  0.00  0.00     0.287 C 
ATOM      3  O   UNL d   1     -39.362  15.136  18.565  0.00  0.00    -0.265 OA
ENDROOT
BRANCH   2   4
ATOM      4  C   UNL d   1     -40.136  14.516  19.587  0.00  0.00     0.098 C 
BRANCH   4   5
ATOM      5  S   UNL d   1     -39.753  14.906  20.212  0.00  0.00    -0.076 SA
BRANCH   5   6
ATOM      6  C   UNL d   1     -39.735  14.566  20.964  0.00  0.00     0.097 C 
BRANCH   6   7
ATOM      7  C   UNL d   1     -39.450  14.993  21.608  0.00  0.00     0.271 C 
ATOM      8  N   UNL d   1     -39.140  14.594  22.254  0.00  0.00    -0.272 N 
ATOM      9  C   UNL d   1     -39.121  13.769  22.240  0.00  0.00     0.083 A 
ATOM     10  C   UNL d   1     -38.858  15.010  22.891  0.00  0.00     0.083 A 
ATOM     11  C   UNL d   1     -38.809  13.365  22.889  0.00  0.00     0.019 A 
ATOM     12  C   UNL d   1     -38.524  13.778  23.534  0.00  0.00     0.003 A 
ATOM     13  C   UNL d   1     -38.545  14.605  23.543  0.00  0.00     0.019 A 
ATOM     14  O   UNL d   1     -39.478  15.816  21.602  0.00  0.00    -0.266 OA
ENDBRANCH   6   7
ENDBRANCH   5   6
ENDBRANCH   4   5
ENDBRANCH   2   4
BRANCH   1  15
ATOM     15  C   UNL d   1     -39.462  13.985  17.677  0.00  0.00     0.182 A 
ATOM     16  N   UNL d   1     -38.936  13.484  17.282  0.00  0.00    -0.283 N 
ATOM     17  C   UNL d   1     -38.649  13.882  16.614  0.00  0.00     0.072 A 
ATOM     18  C   UNL d   1     -38.737  12.726  17.517  0.00  0.00     0.101 C 
ATOM     19  C   UNL d   1     -38.121  13.667  16.025  0.00  0.00     0.017 A 
ATOM     20  C   UNL d   1     -38.999  14.631  16.595  0.00  0.00     0.048 A 
ATOM     21  C   UNL d   1     -37.940  14.184  15.423  0.00  0.00    -0.011 A 
ATOM     22  C   UNL d   1     -38.289  14.932  15.404  0.00  0.00     0.027 A 
ATOM     23  C   UNL d   1     -38.821  15.164  15.987  0.00  0.00    -0.004 A 
ATOM     24  S   UNL d   1     -39.503  14.698  17.252  0.00  0.00    -0.048 SA
ENDBRANCH   1  15
TORSDOF 5
ENDMDL
MODEL 3
REMARK VINA RESULT:      -5.1      1.813      2.352
REMARK  5 active torsions:
REMARK  status: ('A' for Active; 'I' for Inactive)
REMARK    1  A    between atoms: N_3  and  C_1 
REMARK       I    between atoms: C_9  and  N_3 
REMARK       I    between atoms: N_7  and  C_8 
REMARK    2  A    between atoms: C_8  and  C_14 
REMARK    3  A    between atoms: C_15  and  C_9 
REMARK    4  A    between atoms: S_12  and  C_15 
REMARK    5  A    between atoms: C_14  and  S_12 
ROOT
ATOM      1  N   UNL d   1     -47.925  13.947  22.377  0.00  0.00    -0.183 NA
ATOM      2  C   UNL d   1     -47.328  13.499  22.735  0.00  0.00     0.287 C 
ATOM      3  O   UNL d   1     -47.526  12.881  23.253  0.00  0.00    -0.265 OA
ENDROOT
BRANCH   2   4
ATOM      4  C   UNL d   1     -46.539  13.660  22.584  0.00  0.00     0.098 C 
BRANCH   4   5
ATOM      5  S   UNL d   1     -45.975  13.052  22.593  0.00  0.00    -0.076 SA
BRANCH   5   6
ATOM      6  C   UNL d   1     -45.261  13.143  22.189  0.00  0.00     0.097 C 
BRANCH   6   7
ATOM      7  C   UNL d   1     -44.638  12.619  22.318  0.00  0.00     0.271 C 
ATOM      8  N   UNL d   1     -43.933  12.718  21.911  0.00  0.00    -0.272 N 
ATOM      9  C   UNL d   1     -43.867  13.346  21.378  0.00  0.00     0.083 A 
ATOM     10  C   UNL d   1     -43.317  12.205  22.034  0.00  0.00     0.083 A 
ATOM     11  C   UNL d   1     -43.158  13.448  20.967  0.00  0.00     0.019 A 
ATOM     12  C   UNL d   1     -42.534  12.934  21.087  0.00  0.00     0.003 A 
ATOM     13  C   UNL d   1     -42.605  12.307  21.621  0.00  0.00     0.019 A 
ATOM     14  O   UNL d   1     -44.725  12.000  22.853  0.00  0.00    -0.266 OA
ENDBRANCH   6   7
ENDBRANCH   5   6
ENDBRANCH   4   5
ENDBRANCH   2   4
BRANCH   1  15
ATOM     15  C   UNL d   1     -48.632  13.624  22.660  0.00  0.00     0.182 A 
ATOM     16  N   UNL d   1     -49.254  14.042  23.009  0.00  0.00    -0.283 N 
ATOM     17  C   UNL d   1     -49.850  13.502  23.211  0.00  0.00     0.072 A 
ATOM     18  C   UNL d   1     -49.272  14.851  23.130  0.00  0.00     0.101 C 
ATOM     19  C   UNL d   1     -50.583  13.592  23.565  0.00  0.00     0.017 A 
ATOM     20  C   UNL d   1     -49.595  12.748  22.987  0.00  0.00     0.048 A 
ATOM     21  C   UNL d   1     -51.062  12.947  23.698  0.00  0.00    -0.011 A 
ATOM     22  C   UNL d   1     -50.807  12.194  23.474  0.00  0.00     0.027 A 
ATOM     23  C   UNL d   1     -50.074  12.085  23.117  0.00  0.00    -0.004 A 
ATOM     24  S   UNL d   1     -48.841  12.820  22.646  0.00  0.00    -0.048 SA
ENDBRANCH   1  15
TORSDOF 5
ENDMDL
MODEL 4
REMARK VINA RESULT:      -4.6      2.658      3.606
REMARK  5 active torsions:
REMARK  status: ('A' for Active; 'I' for Inactive)
REMARK    1  A    between atoms: N_3  and  C_1 
REMARK       I    between atoms: C_9  and  N_3 
REMARK       I    between atoms: N_7  and  C_8 
REMARK    2  A    between atoms: C_8  and  C_14 
REMARK    3  A    between atoms: C_15  and  C_9 
REMARK    4  A    between atoms: S_12  and  C_15 
REMARK    5  A    between atoms: C_14  and  S_12 
ROOT
ATOM      1  N   UNL d   1     -46.239  13.663  23.028  0.00  0.00    -0.183 NA
ATOM      2  C   UNL d   1     -45.810  13.252  22.450  0.00  0.00     0.287 C 
ATOM      3  O   UNL d   1     -46.100  12.536  22.147  0.00  0.00    -0.265 OA
ENDROOT
BRANCH   2   4
ATOM      4  C   UNL d   1     -45.098  13.548  22.173  0.00  0.00     0.098 C 
BRANCH   4   5
ATOM      5  S   UNL d   1     -44.517  13.037  21.874  0.00  0.00    -0.076 SA
BRANCH   5   6
ATOM      6  C   UNL d   1     -43.874  13.341  21.453  0.00  0.00     0.097 C 
BRANCH   6   7
ATOM      7  C   UNL d   1     -43.139  12.971  21.489  0.00  0.00     0.271 C 
ATOM      8  N   UNL d   1     -42.465  13.388  21.281  0.00  0.00    -0.272 N 
ATOM      9  C   UNL d   1     -42.542  14.174  21.039  0.00  0.00     0.083 A 
ATOM     10  C   UNL d   1     -41.738  13.028  21.314  0.00  0.00     0.083 A 
ATOM     11  C   UNL d   1     -41.864  14.596  20.829  0.00  0.00     0.019 A 
ATOM     12  C   UNL d   1     -41.130  14.239  20.861  0.00  0.00     0.003 A 
ATOM     13  C   UNL d   1     -41.057  13.452  21.103  0.00  0.00     0.019 A 
ATOM     14  O   UNL d   1     -43.084  12.186  21.732  0.00  0.00    -0.266 OA
ENDBRANCH   6   7
ENDBRANCH   5   6
ENDBRANCH   4   5
ENDBRANCH   2   4
BRANCH   1  15
ATOM     15  C   UNL d   1     -46.911  13.199  23.161  0.00  0.00     0.182 A 
ATOM     16  N   UNL d   1     -47.697  13.443  23.074  0.00  0.00    -0.283 N 
ATOM     17  C   UNL d   1     -48.189  12.803  23.265  0.00  0.00     0.072 A 
ATOM     18  C   UNL d   1     -47.939  14.188  22.840  0.00  0.00     0.101 C 
ATOM     19  C   UNL d   1     -49.005  12.717  23.279  0.00  0.00     0.017 A 
ATOM     20  C   UNL d   1     -47.708  12.164  23.469  0.00  0.00     0.048 A 
ATOM     21  C   UNL d   1     -49.342  12.008  23.493  0.00  0.00    -0.011 A 
ATOM     22  C   UNL d   1     -48.861  11.369  23.698  0.00  0.00     0.027 A 
ATOM     23  C   UNL d   1     -48.041  11.438  23.689  0.00  0.00    -0.004 A 
ATOM     24  S   UNL d   1     -46.916  12.406  23.406  0.00  0.00    -0.048 SA
ENDBRANCH   1  15
TORSDOF 5
ENDMDL
MODEL 5
REMARK VINA RESULT:      -4.6      1.606      5.836
REMARK  5 active torsions:
REMARK  status: ('A' for Active; 'I' for Inactive)
REMARK    1  A    between atoms: N_3  and  C_1 
REMARK       I    between atoms: C_9  and  N_3 
REMARK       I    between atoms: N_7  and  C_8 
REMARK    2  A    between atoms: C_8  and  C_14 
REMARK    3  A    between atoms: C_15  and  C_9 
REMARK    4  A    between atoms: S_12  and  C_15 
REMARK    5  A    between atoms: C_14  and  S_12 
ROOT
ATOM      1  N   UNL d   1     -45.832  13.141  22.330  0.00  0.00    -0.183 NA
ATOM      2  C   UNL d   1     -46.277  13.415  22.973  0.00  0.00     0.287 C 
ATOM      3  O   UNL d   1     -46.250  13.012  23.697  0.00  0.00    -0.265 OA
ENDROOT
BRANCH   2   4
ATOM      4  C   UNL d   1     -46.746  14.083  22.899  0.00  0.00     0.098 C 
BRANCH   4   5
ATOM      5  S   UNL d   1     -47.506  14.030  22.569  0.00  0.00    -0.076 SA
BRANCH   5   6
ATOM      6  C   UNL d   1     -48.138  14.431  22.919  0.00  0.00     0.097 C 
BRANCH   6   7
ATOM      7  C   UNL d   1     -48.703  14.807  22.452  0.00  0.00     0.271 C 
ATOM      8  N   UNL d   1     -49.480  14.847  22.710  0.00  0.00    -0.272 N 
ATOM      9  C   UNL d   1     -49.676  14.506  23.435  0.00  0.00     0.083 A 
ATOM     10  C   UNL d   1     -50.041  15.216  22.254  0.00  0.00     0.083 A 
ATOM     11  C   UNL d   1     -50.459  14.544  23.697  0.00  0.00     0.019 A 
ATOM     12  C   UNL d   1     -51.027  14.916  23.242  0.00  0.00     0.003 A 
ATOM     13  C   UNL d   1     -50.826  15.256  22.516  0.00  0.00     0.019 A 
ATOM     14  O   UNL d   1     -48.486  15.141  21.731  0.00  0.00    -0.266 OA
ENDBRANCH   6   7
ENDBRANCH   5   6
ENDBRANCH   4   5
ENDBRANCH   2   4
BRANCH   1  15
ATOM     15  C   UNL d   1     -45.440  12.470  22.614  0.00  0.00     0.182 A 
ATOM     16  N   UNL d   1     -44.634  12.305  22.532  0.00  0.00    -0.283 N 
ATOM     17  C   UNL d   1     -44.480  11.577  22.898  0.00  0.00     0.072 A 
ATOM     18  C   UNL d   1     -44.088  12.783  22.153  0.00  0.00     0.101 C 
ATOM     19  C   UNL d   1     -43.793  11.139  22.992  0.00  0.00     0.017 A 
ATOM     20  C   UNL d   1     -45.191  11.292  23.207  0.00  0.00     0.048 A 
ATOM     21  C   UNL d   1     -43.808  10.427  23.386  0.00  0.00    -0.011 A 
ATOM     22  C   UNL d   1     -44.519  10.142  23.694  0.00  0.00     0.027 A 
ATOM     23  C   UNL d   1     -45.217  10.569  23.609  0.00  0.00    -0.004 A 
ATOM     24  S   UNL d   1     -45.788  11.843  23.032  0.00  0.00    -0.048 SA
ENDBRANCH   1  15
TORSDOF 5
ENDMDL
MODEL 6
REMARK VINA RESULT:      -4.3      9.012     10.396
REMARK  5 active torsions:
REMARK  status: ('A' for Active; 'I' for Inactive)
REMARK    1  A    between atoms: N_3  and  C_1 
REMARK       I    between atoms: C_9  and  N_3 
REMARK       I    between atoms: N_7  and  C_8 
REMARK    2  A    between atoms: C_8  and  C_14 
REMARK    3  A    between atoms: C_15  and  C_9 
REMARK    4  A    between atoms: S_12  and  C_15 
REMARK    5  A    between atoms: C_14  and  S_12 
ROOT
ATOM      1  N   UNL d   1     -40.163  14.303  20.153  0.00  0.00    -0.183 NA
ATOM      2  C   UNL d   1     -40.077  14.933  19.621  0.00  0.00     0.287 C 
ATOM      3  O   UNL d   1     -39.689  15.627  19.859  0.00  0.00    -0.265 OA
ENDROOT
BRANCH   2   4
ATOM      4  C   UNL d   1     -40.374  14.878  18.859  0.00  0.00     0.098 C 
BRANCH   4   5
ATOM      5  S   UNL d   1     -39.941  15.174  18.216  0.00  0.00    -0.076 SA
BRANCH   5   6
ATOM      6  C   UNL d   1     -39.921  14.758  17.503  0.00  0.00     0.097 C 
BRANCH   6   7
ATOM      7  C   UNL d   1     -39.563  15.086  16.838  0.00  0.00     0.271 C 
ATOM      8  N   UNL d   1     -39.040  14.635  16.395  0.00  0.00    -0.272 N 
ATOM      9  C   UNL d   1     -38.888  13.858  16.630  0.00  0.00     0.083 A 
ATOM     10  C   UNL d   1     -38.684  14.953  15.739  0.00  0.00     0.083 A 
ATOM     11  C   UNL d   1     -38.362  13.402  16.186  0.00  0.00     0.019 A 
ATOM     12  C   UNL d   1     -38.001  13.717  15.524  0.00  0.00     0.003 A 
ATOM     13  C   UNL d   1     -38.157  14.496  15.292  0.00  0.00     0.019 A 
ATOM     14  O   UNL d   1     -39.729  15.863  16.621  0.00  0.00    -0.266 OA
ENDBRANCH   6   7
ENDBRANCH   5   6
ENDBRANCH   4   5
ENDBRANCH   2   4
BRANCH   1  15
ATOM     15  C   UNL d   1     -39.800  14.563  20.849  0.00  0.00     0.182 A 
ATOM     16  N   UNL d   1     -39.165  14.199  21.234  0.00  0.00    -0.283 N 
ATOM     17  C   UNL d   1     -38.980  14.644  21.908  0.00  0.00     0.072 A 
ATOM     18  C   UNL d   1     -38.789  13.516  20.986  0.00  0.00     0.101 C 
ATOM     19  C   UNL d   1     -38.412  14.554  22.493  0.00  0.00     0.017 A 
ATOM     20  C   UNL d   1     -39.501  15.285  21.940  0.00  0.00     0.048 A 
ATOM     21  C   UNL d   1     -38.358  15.090  23.103  0.00  0.00    -0.011 A 
ATOM     22  C   UNL d   1     -38.879  15.730  23.135  0.00  0.00     0.027 A 
ATOM     23  C   UNL d   1     -39.454  15.836  22.557  0.00  0.00    -0.004 A 
ATOM     24  S   UNL d   1     -40.010  15.237  21.286  0.00  0.00    -0.048 SA
ENDBRANCH   1  15
TORSDOF 5
ENDMDL
MODEL 7
REMARK VINA RESULT:      -3.9      9.000      9.544
REMARK  5 active torsions:
REMARK  status: ('A' for Active; 'I' for Inactive)
REMARK    1  A    between atoms: N_3  and  C_1 
REMARK       I    between atoms: C_9  and  N_3 
REMARK       I    between atoms: N_7  and  C_8 
REMARK    2  A    between atoms: C_8  and  C_14 
REMARK    3  A    between atoms: C_15  and  C_9 
REMARK    4  A    between atoms: S_12  and  C_15 
REMARK    5  A    between atoms: C_14  and  S_12 
ROOT
ATOM      1  N   UNL d   1     -39.306  15.152  18.380  0.00  0.00    -0.183 NA
ATOM      2  C   UNL d   1     -39.646  14.717  18.998  0.00  0.00     0.287 C 
ATOM      3  O   UNL d   1     -40.455  14.535  18.981  0.00  0.00    -0.265 OA
ENDROOT
BRANCH   2   4
ATOM      4  C   UNL d   1     -39.189  14.465  19.629  0.00  0.00     0.098 C 
BRANCH   4   5
ATOM      5  S   UNL d   1     -39.427  14.617  20.410  0.00  0.00    -0.076 SA
BRANCH   5   6
ATOM      6  C   UNL d   1     -39.090  14.196  21.035  0.00  0.00     0.097 C 
BRANCH   6   7
ATOM      7  C   UNL d   1     -38.733  14.594  21.662  0.00  0.00     0.271 C 
ATOM      8  N   UNL d   1     -38.537  14.182  22.344  0.00  0.00    -0.272 N 
ATOM      9  C   UNL d   1     -38.704  13.375  22.383  0.00  0.00     0.083 A 
ATOM     10  C   UNL d   1     -38.185  14.569  22.964  0.00  0.00     0.083 A 
ATOM     11  C   UNL d   1     -38.508  12.958  23.068  0.00  0.00     0.019 A 
ATOM     12  C   UNL d   1     -38.153  13.343  23.696  0.00  0.00     0.003 A 
ATOM     13  C   UNL d   1     -37.987  14.152  23.653  0.00  0.00     0.019 A 
ATOM     14  O   UNL d   1     -38.575  15.399  21.602  0.00  0.00    -0.266 OA
ENDBRANCH   6   7
ENDBRANCH   5   6
ENDBRANCH   4   5
ENDBRANCH   2   4
BRANCH   1  15
ATOM     15  C   UNL d   1     -39.930  15.302  17.858  0.00  0.00     0.182 A 
ATOM     16  N   UNL d   1     -39.921  15.183  17.040  0.00  0.00    -0.283 N 
ATOM     17  C   UNL d   1     -40.660  15.405  16.737  0.00  0.00     0.072 A 
ATOM     18  C   UNL d   1     -39.288  14.895  16.610  0.00  0.00     0.101 C 
ATOM     19  C   UNL d   1     -40.970  15.409  15.978  0.00  0.00     0.017 A 
ATOM     20  C   UNL d   1     -41.127  15.662  17.369  0.00  0.00     0.048 A 
ATOM     21  C   UNL d   1     -41.731  15.662  15.842  0.00  0.00    -0.011 A 
ATOM     22  C   UNL d   1     -42.197  15.919  16.474  0.00  0.00     0.027 A 
ATOM     23  C   UNL d   1     -41.903  15.922  17.242  0.00  0.00    -0.004 A 
ATOM     24  S   UNL d   1     -40.677  15.599  18.064  0.00  0.00    -0.048 SA
ENDBRANCH   1  15
TORSDOF 5
ENDMDL
MODEL 8
REMARK VINA RESULT:      -3.9      3.696      5.059
REMARK  5 active torsions:
REMARK  status: ('A' for Active; 'I' for Inactive)
REMARK    1  A    between atoms: N_3  and  C_1 
REMARK       I    between atoms: C_9  and  N_3 
REMARK       I    between atoms: N_7  and  C_8 
REMARK    2  A    between atoms: C_8  and  C_14 
REMARK    3  A    between atoms: C_15  and  C_9 
REMARK    4  A    between atoms: S_12  and  C_15 
REMARK    5  A    between atoms: C_14  and  S_12 
ROOT
ATOM      1  N   UNL d   1     -44.324  12.183  22.193  0.00  0.00    -0.183 NA
ATOM      2  C   UNL d   1     -43.902  12.818  21.870  0.00  0.00     0.287 C 
ATOM      3  O   UNL d   1     -44.248  13.571  21.835  0.00  0.00    -0.265 OA
ENDROOT
BRANCH   2   4
ATOM      4  C   UNL d   1     -43.142  12.710  21.583  0.00  0.00     0.098 C 
BRANCH   4   5
ATOM      5  S   UNL d   1     -42.780  13.293  21.117  0.00  0.00    -0.076 SA
BRANCH   5   6
ATOM      6  C   UNL d   1     -41.966  13.418  21.169  0.00  0.00     0.097 C 
BRANCH   6   7
ATOM      7  C   UNL d   1     -41.553  13.748  20.536  0.00  0.00     0.271 C 
ATOM      8  N   UNL d   1     -40.830  14.111  20.669  0.00  0.00    -0.272 N 
ATOM      9  C   UNL d   1     -40.534  14.136  21.439  0.00  0.00     0.083 A 
ATOM     10  C   UNL d   1     -40.419  14.437  20.049  0.00  0.00     0.083 A 
ATOM     11  C   UNL d   1     -39.805  14.501  21.575  0.00  0.00     0.019 A 
ATOM     12  C   UNL d   1     -39.387  14.831  20.955  0.00  0.00     0.003 A 
ATOM     13  C   UNL d   1     -39.688  14.803  20.186  0.00  0.00     0.019 A 
ATOM     14  O   UNL d   1     -41.867  13.712  19.776  0.00  0.00    -0.266 OA
ENDBRANCH   6   7
ENDBRANCH   5   6
ENDBRANCH   4   5
ENDBRANCH   2   4
BRANCH   1  15
ATOM     15  C   UNL d   1     -45.052  12.504  22.417  0.00  0.00     0.182 A 
ATOM     16  N   UNL d   1     -45.608  12.152  22.919  0.00  0.00    -0.283 N 
ATOM     17  C   UNL d   1     -46.255  12.666  22.991  0.00  0.00     0.072 A 
ATOM     18  C   UNL d   1     -45.526  11.422  23.278  0.00  0.00     0.101 C 
ATOM     19  C   UNL d   1     -46.959  12.614  23.408  0.00  0.00     0.017 A 
ATOM     20  C   UNL d   1     -46.099  13.336  22.534  0.00  0.00     0.048 A 
ATOM     21  C   UNL d   1     -47.504  13.218  23.375  0.00  0.00    -0.011 A 
ATOM     22  C   UNL d   1     -47.349  13.888  22.918  0.00  0.00     0.027 A 
ATOM     23  C   UNL d   1     -46.648  13.956  22.494  0.00  0.00    -0.004 A 
ATOM     24  S   UNL d   1     -45.355  13.239  22.177  0.00  0.00    -0.048 SA
ENDBRANCH   1  15
TORSDOF 5
ENDMDL
