MODEL 1
REMARK VINA RESULT:      -6.1      0.000      0.000
REMARK  9 active torsions:
REMARK  status: ('A' for Active; 'I' for Inactive)
REMARK       I    between atoms: C_2  and  N_1 
REMARK    1  A    between atoms: C_3  and  C_2 
REMARK    2  A    between atoms: C_15  and  C_4 
REMARK       I    between atoms: C_5  and  N_9 
REMARK    3  A    between atoms: C_6  and  C_5 
REMARK       I    between atoms: N_21  and  C_6 
REMARK    4  A    between atoms: N_9  and  C_15 
REMARK    5  A    between atoms: C_25  and  N_21 
REMARK    6  A    between atoms: N_23  and  C_26 
REMARK    7  A    between atoms: C_27  and  N_23 
REMARK    8  A    between atoms: C_28  and  N_23 
REMARK    9  A    between atoms: C_26  and  C_25 
ROOT
ATOM      1  N   UNL d   1     -46.866  13.209  22.429  0.00  0.00    -0.250 N 
ATOM      2  C   UNL d   1     -47.301  12.847  21.826  0.00  0.00     0.266 C 
ATOM      3  C   UNL d   1     -46.045  13.305  22.464  0.00  0.00     0.190 A 
ATOM      4  O   UNL d   1     -46.906  12.534  21.168  0.00  0.00    -0.267 OA
ATOM      5  O   UNL d   1     -45.849  13.694  23.159  0.00  0.00    -0.285 OA
ATOM      6  C   UNL d   1     -47.171  13.547  23.119  0.00  0.00     0.112 A 
ATOM      7  C   UNL d   1     -46.547  13.844  23.566  0.00  0.00     0.144 A 
ENDROOT
BRANCH   3   8
ATOM      8  C   UNL d   1     -45.510  13.045  21.880  0.00  0.00     0.146 C 
BRANCH   8   9
ATOM      9  N   UNL d   1     -44.702  13.044  22.039  0.00  0.00    -0.199 NA
ATOM     10  C   UNL d   1     -44.171  12.815  21.456  0.00  0.00     0.337 C 
ATOM     11  O   UNL d   1     -44.440  12.585  20.708  0.00  0.00    -0.260 OA
BRANCH  10  12
ATOM     12  C   UNL d   1     -43.363  12.813  21.615  0.00  0.00     0.337 C 
ATOM     13  O   UNL d   1     -43.036  12.219  22.080  0.00  0.00    -0.260 OA
ATOM     14  N   UNL d   1     -42.887  13.406  21.309  0.00  0.00    -0.201 NA
BRANCH  14  15
ATOM     15  C   UNL d   1     -42.075  13.592  21.342  0.00  0.00     0.121 C 
BRANCH  15  16
ATOM     16  C   UNL d   1     -41.721  14.118  20.818  0.00  0.00     0.101 C 
BRANCH  16  17
ATOM     17  N   UNL d   1     -40.998  14.459  21.006  0.00  0.00    -0.301 N 
BRANCH  17  18
ATOM     18  C   UNL d   1     -40.326  14.009  21.103  0.00  0.00     0.080 C 
ATOM     19  C   UNL d   1     -39.628  14.334  21.425  0.00  0.00     0.021 C 
ENDBRANCH  17  18
BRANCH  17  20
ATOM     20  C   UNL d   1     -40.952  15.296  21.100  0.00  0.00     0.080 C 
ATOM     21  C   UNL d   1     -40.990  15.789  20.426  0.00  0.00     0.021 C 
ENDBRANCH  17  20
ENDBRANCH  16  17
ENDBRANCH  15  16
ENDBRANCH  14  15
ENDBRANCH  10  12
ENDBRANCH   8   9
ENDBRANCH   3   8
BRANCH   2  22
ATOM     22  C   UNL d   1     -48.122  12.804  21.892  0.00  0.00     0.059 A 
ATOM     23  C   UNL d   1     -48.605  13.386  21.587  0.00  0.00     0.031 A 
ATOM     24  C   UNL d   1     -49.426  13.344  21.653  0.00  0.00     0.119 A 
ATOM     25  O   UNL d   1     -50.037  13.836  21.406  0.00  0.00    -0.300 OA
ATOM     26  C   UNL d   1     -49.764  12.685  22.044  0.00  0.00     0.119 A 
ATOM     27  C   UNL d   1     -50.752  13.483  21.643  0.00  0.00     0.304 A 
ATOM     28  O   UNL d   1     -50.585  12.784  22.031  0.00  0.00    -0.300 OA
ATOM     29  C   UNL d   1     -49.285  12.091  22.356  0.00  0.00     0.026 A 
ATOM     30  C   UNL d   1     -48.465  12.148  22.282  0.00  0.00     0.007 A 
ENDBRANCH   2  22
TORSDOF 9
ENDMDL
MODEL 2
REMARK VINA RESULT:      -5.8      2.604      7.539
REMARK  9 active torsions:
REMARK  status: ('A' for Active; 'I' for Inactive)
REMARK       I    between atoms: C_2  and  N_1 
REMARK    1  A    between atoms: C_3  and  C_2 
REMARK    2  A    between atoms: C_15  and  C_4 
REMARK       I    between atoms: C_5  and  N_9 
REMARK    3  A    between atoms: C_6  and  C_5 
REMARK       I    between atoms: N_21  and  C_6 
REMARK    4  A    between atoms: N_9  and  C_15 
REMARK    5  A    between atoms: C_25  and  N_21 
REMARK    6  A    between atoms: N_23  and  C_26 
REMARK    7  A    between atoms: C_27  and  N_23 
REMARK    8  A    between atoms: C_28  and  N_23 
REMARK    9  A    between atoms: C_26  and  C_25 
ROOT
ATOM      1  N   UNL d   1     -40.839  14.609  20.062  0.00  0.00    -0.250 N 
ATOM      2  C   UNL d   1     -40.793  14.367  19.272  0.00  0.00     0.266 C 
ATOM      3  C   UNL d   1     -41.339  14.307  20.648  0.00  0.00     0.190 A 
ATOM      4  O   UNL d   1     -41.285  13.759  19.001  0.00  0.00    -0.267 OA
ATOM      5  O   UNL d   1     -41.201  14.707  21.350  0.00  0.00    -0.285 OA
ATOM      6  C   UNL d   1     -40.391  15.204  20.420  0.00  0.00     0.112 A 
ATOM      7  C   UNL d   1     -40.613  15.264  21.210  0.00  0.00     0.144 A 
ENDROOT
BRANCH   3   8
ATOM      8  C   UNL d   1     -41.891  13.694  20.532  0.00  0.00     0.146 C 
BRANCH   8   9
ATOM      9  N   UNL d   1     -42.378  13.461  21.155  0.00  0.00    -0.199 NA
ATOM     10  C   UNL d   1     -42.976  12.915  21.023  0.00  0.00     0.337 C 
ATOM     11  O   UNL d   1     -43.097  12.595  20.270  0.00  0.00    -0.260 OA
BRANCH  10  12
ATOM     12  C   UNL d   1     -43.462  12.682  21.646  0.00  0.00     0.337 C 
ATOM     13  O   UNL d   1     -43.191  12.136  22.199  0.00  0.00    -0.260 OA
ATOM     14  N   UNL d   1     -44.216  12.995  21.713  0.00  0.00    -0.201 NA
BRANCH  14  15
ATOM     15  C   UNL d   1     -44.853  12.904  22.244  0.00  0.00     0.121 C 
BRANCH  15  16
ATOM     16  C   UNL d   1     -45.546  13.341  22.182  0.00  0.00     0.101 C 
BRANCH  16  17
ATOM     17  N   UNL d   1     -46.146  13.240  22.732  0.00  0.00    -0.301 N 
BRANCH  17  18
ATOM     18  C   UNL d   1     -46.456  12.504  22.896  0.00  0.00     0.080 C 
ATOM     19  C   UNL d   1     -46.770  12.321  23.645  0.00  0.00     0.021 C 
ENDBRANCH  17  18
BRANCH  17  20
ATOM     20  C   UNL d   1     -46.449  13.915  23.139  0.00  0.00     0.080 C 
ATOM     21  C   UNL d   1     -46.955  14.444  22.737  0.00  0.00     0.021 C 
ENDBRANCH  17  20
ENDBRANCH  16  17
ENDBRANCH  15  16
ENDBRANCH  14  15
ENDBRANCH  10  12
ENDBRANCH   8   9
ENDBRANCH   3   8
BRANCH   2  22
ATOM     22  C   UNL d   1     -40.255  14.739  18.769  0.00  0.00     0.059 A 
ATOM     23  C   UNL d   1     -39.497  14.455  18.670  0.00  0.00     0.031 A 
ATOM     24  C   UNL d   1     -38.959  14.826  18.167  0.00  0.00     0.119 A 
ATOM     25  O   UNL d   1     -38.178  14.669  17.964  0.00  0.00    -0.300 OA
ATOM     26  C   UNL d   1     -39.204  15.510  17.751  0.00  0.00     0.119 A 
ATOM     27  C   UNL d   1     -37.940  15.254  17.422  0.00  0.00     0.304 A 
ATOM     28  O   UNL d   1     -38.564  15.764  17.294  0.00  0.00    -0.300 OA
ATOM     29  C   UNL d   1     -39.969  15.805  17.843  0.00  0.00     0.026 A 
ATOM     30  C   UNL d   1     -40.495  15.422  18.350  0.00  0.00     0.007 A 
ENDBRANCH   2  22
TORSDOF 9
ENDMDL
MODEL 3
REMARK VINA RESULT:      -3.4      1.869      3.007
REMARK  9 active torsions:
REMARK  status: ('A' for Active; 'I' for Inactive)
REMARK       I    between atoms: C_2  and  N_1 
REMARK    1  A    between atoms: C_3  and  C_2 
REMARK    2  A    between atoms: C_15  and  C_4 
REMARK       I    between atoms: C_5  and  N_9 
REMARK    3  A    between atoms: C_6  and  C_5 
REMARK       I    between atoms: N_21  and  C_6 
REMARK    4  A    between atoms: N_9  and  C_15 
REMARK    5  A    between atoms: C_25  and  N_21 
REMARK    6  A    between atoms: N_23  and  C_26 
REMARK    7  A    between atoms: C_27  and  N_23 
REMARK    8  A    between atoms: C_28  and  N_23 
REMARK    9  A    between atoms: C_26  and  C_25 
ROOT
ATOM      1  N   UNL d   1     -44.341  12.779  22.084  0.00  0.00    -0.250 N 
ATOM      2  C   UNL d   1     -44.896  13.392  22.059  0.00  0.00     0.266 C 
ATOM      3  C   UNL d   1     -43.557  12.806  21.821  0.00  0.00     0.190 A 
ATOM      4  O   UNL d   1     -44.680  14.127  21.745  0.00  0.00    -0.267 OA
ATOM      5  O   UNL d   1     -43.207  12.075  21.951  0.00  0.00    -0.285 OA
ATOM      6  C   UNL d   1     -44.465  12.016  22.378  0.00  0.00     0.112 A 
ATOM      7  C   UNL d   1     -43.769  11.585  22.296  0.00  0.00     0.144 A 
ENDROOT
BRANCH   3   8
ATOM      8  C   UNL d   1     -43.191  13.472  21.481  0.00  0.00     0.146 C 
BRANCH   8   9
ATOM      9  N   UNL d   1     -42.437  13.401  21.155  0.00  0.00    -0.199 NA
ATOM     10  C   UNL d   1     -42.001  14.075  20.987  0.00  0.00     0.337 C 
ATOM     11  O   UNL d   1     -42.309  14.827  21.141  0.00  0.00    -0.260 OA
BRANCH  10  12
ATOM     12  C   UNL d   1     -41.247  14.004  20.661  0.00  0.00     0.337 C 
ATOM     13  O   UNL d   1     -40.616  13.762  21.130  0.00  0.00    -0.260 OA
ATOM     14  N   UNL d   1     -41.129  14.176  19.868  0.00  0.00    -0.201 NA
BRANCH  14  15
ATOM     15  C   UNL d   1     -40.475  14.172  19.351  0.00  0.00     0.121 C 
BRANCH  15  16
ATOM     16  C   UNL d   1     -40.558  14.213  18.534  0.00  0.00     0.101 C 
BRANCH  16  17
ATOM     17  N   UNL d   1     -39.893  14.254  18.055  0.00  0.00    -0.301 N 
BRANCH  17  18
ATOM     18  C   UNL d   1     -39.704  14.932  17.644  0.00  0.00     0.080 C 
ATOM     19  C   UNL d   1     -40.196  15.224  17.039  0.00  0.00     0.021 C 
ENDBRANCH  17  18
BRANCH  17  20
ATOM     20  C   UNL d   1     -39.393  13.578  17.988  0.00  0.00     0.080 C 
ATOM     21  C   UNL d   1     -38.738  13.599  17.470  0.00  0.00     0.021 C 
ENDBRANCH  17  20
ENDBRANCH  16  17
ENDBRANCH  15  16
ENDBRANCH  14  15
ENDBRANCH  10  12
ENDBRANCH   8   9
ENDBRANCH   3   8
BRANCH   2  22
ATOM     22  C   UNL d   1     -45.656  13.259  22.350  0.00  0.00     0.059 A 
ATOM     23  C   UNL d   1     -46.263  13.013  21.862  0.00  0.00     0.031 A 
ATOM     24  C   UNL d   1     -47.022  12.879  22.152  0.00  0.00     0.119 A 
ATOM     25  O   UNL d   1     -47.725  12.636  21.800  0.00  0.00    -0.300 OA
ATOM     26  C   UNL d   1     -47.168  13.000  22.968  0.00  0.00     0.119 A 
ATOM     27  C   UNL d   1     -48.305  12.606  22.397  0.00  0.00     0.304 A 
ATOM     28  O   UNL d   1     -47.965  12.828  23.105  0.00  0.00    -0.300 OA
ATOM     29  C   UNL d   1     -46.563  13.248  23.470  0.00  0.00     0.026 A 
ATOM     30  C   UNL d   1     -45.807  13.378  23.164  0.00  0.00     0.007 A 
ENDBRANCH   2  22
TORSDOF 9
ENDMDL
