MODEL 1
REMARK VINA RESULT:     117.4      0.000      0.000
REMARK  4 active torsions:
REMARK  status: ('A' for Active; 'I' for Inactive)
REMARK    1  A    between atoms: S_5  and  C_3 
REMARK    2  A    between atoms: C_13  and  S_5 
REMARK    3  A    between atoms: C_23  and  N_7 
REMARK    4  A    between atoms: C_29  and  C_23 
ROOT
ATOM      1  C   UNL d   1     -57.479 -98.917 -44.281  0.00  0.00     0.155 A 
ATOM      2  C   UNL d   1     -56.982 -98.943 -43.638  0.00  0.00     0.092 A 
ATOM      3  C   UNL d   1     -58.094 -98.935 -42.773  0.00  0.00     0.124 A 
ATOM      4  N   UNL d   1     -57.168 -98.907 -45.040  0.00  0.00    -0.210 NA
ATOM      5  N   UNL d   1     -55.863 -98.951 -44.503  0.00  0.00    -0.258 N 
ATOM      6  N   UNL d   1     -58.280 -98.899 -44.175  0.00  0.00    -0.273 N 
ATOM      7  C   UNL d   1     -56.370 -98.924 -45.150  0.00  0.00     0.152 A 
ATOM      8  C   UNL d   1     -58.597 -98.908 -43.423  0.00  0.00     0.181 A 
ATOM      9  C   UNL d   1     -56.171 -98.960 -43.746  0.00  0.00     0.269 A 
ATOM     10  C   UNL d   1     -57.286 -98.952 -42.884  0.00  0.00     0.022 A 
ATOM     11  C   UNL d   1     -56.059 -98.915 -45.909  0.00  0.00     0.035 A 
ATOM     12  C   UNL d   1     -55.052 -98.968 -44.623  0.00  0.00     0.084 A 
ATOM     13  N   UNL d   1     -59.416 -98.891 -43.319  0.00  0.00    -0.128 N 
ATOM     14  O   UNL d   1     -55.659 -98.987 -43.092  0.00  0.00    -0.266 OA
ATOM     15  C   UNL d   1     -54.747 -98.959 -45.378  0.00  0.00     0.019 A 
ATOM     16  C   UNL d   1     -55.254 -98.932 -46.024  0.00  0.00     0.005 A 
ATOM     17  C   UNL d   1     -56.571 -98.889 -46.563  0.00  0.00     0.003 C 
ENDROOT
BRANCH   3  18
ATOM     18  S   UNL d   1     -58.408 -98.944 -42.010  0.00  0.00     0.213 S 
ATOM     19  O   UNL d   1     -57.654 -98.794 -41.688  0.00  0.00    -0.217 OA
ATOM     20  O   UNL d   1     -59.157 -99.091 -42.319  0.00  0.00    -0.217 OA
BRANCH  18  21
ATOM     21  C   UNL d   1     -58.733 -98.955 -41.245  0.00  0.00     0.088 A 
ATOM     22  C   UNL d   1     -59.551 -98.951 -41.142  0.00  0.00     0.014 A 
ATOM     23  C   UNL d   1     -59.875 -98.962 -40.376  0.00  0.00     0.030 A 
ATOM     24  C   UNL d   1     -59.379 -98.976 -39.716  0.00  0.00     0.140 A 
ATOM     25  C   UNL d   1     -58.548 -98.980 -39.827  0.00  0.00     0.030 A 
ATOM     26  F   UNL d   1     -59.693 -98.987 -38.952  0.00  0.00    -0.204 F 
ATOM     27  C   UNL d   1     -58.228 -98.969 -40.590  0.00  0.00     0.014 A 
ENDBRANCH  18  21
ENDBRANCH   3  18
BRANCH   6  28
ATOM     28  C   UNL d   1     -58.791 -98.873 -44.835  0.00  0.00     0.083 C 
BRANCH  28  29
ATOM     29  C   UNL d   1     -59.570 -99.159 -44.764  0.00  0.00     0.019 C 
ATOM     30  C   UNL d   1     -59.954 -99.501 -45.417  0.00  0.00     0.002 C 
ENDBRANCH  28  29
ENDBRANCH   6  28
TORSDOF 4
ENDMDL
MODEL 2
REMARK VINA RESULT:     118.8      3.708      5.709
REMARK  4 active torsions:
REMARK  status: ('A' for Active; 'I' for Inactive)
REMARK    1  A    between atoms: S_5  and  C_3 
REMARK    2  A    between atoms: C_13  and  S_5 
REMARK    3  A    between atoms: C_23  and  N_7 
REMARK    4  A    between atoms: C_29  and  C_23 
ROOT
ATOM      1  C   UNL d   1     -54.924-101.201 -41.053  0.00  0.00     0.155 A 
ATOM      2  C   UNL d   1     -54.931-100.391 -41.119  0.00  0.00     0.092 A 
ATOM      3  C   UNL d   1     -55.028-100.504 -42.521  0.00  0.00     0.124 A 
ATOM      4  N   UNL d   1     -54.871-101.552 -40.313  0.00  0.00    -0.210 NA
ATOM      5  N   UNL d   1     -54.833-100.274 -39.714  0.00  0.00    -0.258 N 
ATOM      6  N   UNL d   1     -54.969-101.664 -41.714  0.00  0.00    -0.273 N 
ATOM      7  C   UNL d   1     -54.827-101.094 -39.651  0.00  0.00     0.152 A 
ATOM      8  C   UNL d   1     -55.021-101.323 -42.453  0.00  0.00     0.181 A 
ATOM      9  C   UNL d   1     -54.886 -99.923 -40.450  0.00  0.00     0.269 A 
ATOM     10  C   UNL d   1     -54.983-100.040 -41.851  0.00  0.00     0.022 A 
ATOM     11  C   UNL d   1     -54.774-101.444 -38.911  0.00  0.00     0.035 A 
ATOM     12  C   UNL d   1     -54.787 -99.815 -39.035  0.00  0.00     0.084 A 
ATOM     13  N   UNL d   1     -55.067-101.800 -43.126  0.00  0.00    -0.128 N 
ATOM     14  O   UNL d   1     -54.892 -99.095 -40.513  0.00  0.00    -0.266 OA
ATOM     15  C   UNL d   1     -54.735-100.166 -38.303  0.00  0.00     0.019 A 
ATOM     16  C   UNL d   1     -54.729-100.985 -38.241  0.00  0.00     0.005 A 
ATOM     17  C   UNL d   1     -54.767-102.273 -38.848  0.00  0.00     0.003 C 
ENDROOT
BRANCH   3  18
ATOM     18  S   UNL d   1     -55.081-100.153 -43.265  0.00  0.00     0.213 S 
ATOM     19  O   UNL d   1     -54.948 -99.402 -42.931  0.00  0.00    -0.217 OA
ATOM     20  O   UNL d   1     -55.213-100.892 -43.605  0.00  0.00    -0.217 OA
BRANCH  18  21
ATOM     21  C   UNL d   1     -55.136 -99.808 -44.019  0.00  0.00     0.088 A 
ATOM     22  C   UNL d   1     -54.712-100.124 -44.652  0.00  0.00     0.014 A 
ATOM     23  C   UNL d   1     -54.768 -99.778 -45.407  0.00  0.00     0.030 A 
ATOM     24  C   UNL d   1     -55.248 -99.116 -45.524  0.00  0.00     0.140 A 
ATOM     25  C   UNL d   1     -55.676 -98.800 -44.878  0.00  0.00     0.030 A 
ATOM     26  F   UNL d   1     -55.309 -98.767 -46.271  0.00  0.00    -0.204 F 
ATOM     27  C   UNL d   1     -55.619 -99.146 -44.128  0.00  0.00     0.014 A 
ENDBRANCH  18  21
ENDBRANCH   3  18
BRANCH   6  28
ATOM     28  C   UNL d   1     -54.962-102.497 -41.645  0.00  0.00     0.083 C 
BRANCH  28  29
ATOM     29  C   UNL d   1     -55.526-102.875 -41.163  0.00  0.00     0.019 C 
ATOM     30  C   UNL d   1     -56.298-102.570 -41.101  0.00  0.00     0.002 C 
ENDBRANCH  28  29
ENDBRANCH   6  28
TORSDOF 4
ENDMDL
