MODEL 1
REMARK VINA RESULT:      86.2      0.000      0.000
REMARK  4 active torsions:
REMARK  status: ('A' for Active; 'I' for Inactive)
REMARK    1  A    between atoms: S_5  and  C_3 
REMARK    2  A    between atoms: C_12  and  S_5 
REMARK    3  A    between atoms: C_23  and  N_6 
REMARK    4  A    between atoms: C_28  and  C_23 
ROOT
ATOM      1  C   UNL d   1     -49.945  26.263  33.746  0.00  0.00     0.155 A 
ATOM      2  C   UNL d   1     -50.664  26.622  33.889  0.00  0.00     0.092 A 
ATOM      3  C   UNL d   1     -51.327  25.397  33.648  0.00  0.00     0.124 A 
ATOM      4  N   UNL d   1     -49.248  26.701  33.796  0.00  0.00    -0.210 NA
ATOM      5  N   UNL d   1     -49.913  25.476  33.556  0.00  0.00    -0.273 N 
ATOM      6  C   UNL d   1     -50.601  25.033  33.504  0.00  0.00     0.181 A 
ATOM      7  C   UNL d   1     -50.696  27.419  34.082  0.00  0.00     0.269 A 
ATOM      8  N   UNL d   1     -50.001  27.854  34.131  0.00  0.00    -0.258 N 
ATOM      9  C   UNL d   1     -51.356  26.192  33.841  0.00  0.00     0.022 A 
ATOM     10  C   UNL d   1     -49.277  27.486  33.986  0.00  0.00     0.152 A 
ATOM     11  N   UNL d   1     -50.563  24.229  33.309  0.00  0.00    -0.128 N 
ATOM     12  C   UNL d   1     -50.021  28.655  34.324  0.00  0.00     0.084 A 
ATOM     13  O   UNL d   1     -51.428  27.791  34.228  0.00  0.00    -0.266 OA
ATOM     14  C   UNL d   1     -48.580  27.924  34.035  0.00  0.00     0.038 A 
ATOM     15  C   UNL d   1     -49.328  29.085  34.372  0.00  0.00     0.019 A 
ATOM     16  C   UNL d   1     -48.604  28.718  34.227  0.00  0.00     0.005 A 
ENDROOT
BRANCH   3  17
ATOM     17  S   UNL d   1     -52.026  24.955  33.598  0.00  0.00     0.213 S 
ATOM     18  O   UNL d   1     -51.634  24.280  33.891  0.00  0.00    -0.217 OA
ATOM     19  O   UNL d   1     -52.425  25.620  33.307  0.00  0.00    -0.217 OA
BRANCH  17  20
ATOM     20  C   UNL d   1     -52.737  24.519  33.543  0.00  0.00     0.088 A 
ATOM     21  C   UNL d   1     -52.714  23.706  33.388  0.00  0.00     0.014 A 
ATOM     22  C   UNL d   1     -53.425  23.271  33.333  0.00  0.00     0.030 A 
ATOM     23  C   UNL d   1     -54.154  23.652  33.433  0.00  0.00     0.140 A 
ATOM     24  C   UNL d   1     -54.170  24.477  33.590  0.00  0.00     0.030 A 
ATOM     25  F   UNL d   1     -54.864  23.226  33.380  0.00  0.00    -0.204 F 
ATOM     26  C   UNL d   1     -53.462  24.909  33.644  0.00  0.00     0.014 A 
ENDBRANCH  17  20
ENDBRANCH   3  17
BRANCH   5  27
ATOM     27  C   UNL d   1     -49.174  25.106  33.409  0.00  0.00     0.083 C 
BRANCH  27  28
ATOM     28  C   UNL d   1     -48.912  24.496  33.917  0.00  0.00     0.019 C 
ATOM     29  C   UNL d   1     -48.234  24.047  33.725  0.00  0.00     0.002 C 
ENDBRANCH  27  28
ENDBRANCH   5  27
TORSDOF 4
ENDMDL
