MODEL 1
REMARK VINA RESULT:      10.6      0.000      0.000
REMARK  2 active torsions:
REMARK  status: ('A' for Active; 'I' for Inactive)
REMARK    1  A    between atoms: S_2  and  N_1 
REMARK    2  A    between atoms: C_8  and  S_2 
ROOT
ATOM      1  S   UNL d   1      24.440  12.533  -2.758  0.00  0.00     0.273 S 
ATOM      2  O   UNL d   1      24.113  11.780  -2.767  0.00  0.00    -0.200 OA
ATOM      3  O   UNL d   1      24.768  13.290  -2.741  0.00  0.00    -0.200 OA
ENDROOT
BRANCH   1   4
ATOM      4  N   UNL d   1      24.357  12.540  -1.937  0.00  0.00    -0.207 N 
ATOM      5  C   UNL d   1      23.931  13.188  -1.640  0.00  0.00     0.148 A 
ATOM      6  N   UNL d   1      23.749  13.359  -0.847  0.00  0.00    -0.198 NA
ATOM      7  C   UNL d   1      23.940  12.944  -0.178  0.00  0.00     0.066 A 
ATOM      8  C   UNL d   1      24.257  12.589  -1.207  0.00  0.00     0.169 A 
ATOM      9  C   UNL d   1      24.363  12.245  -0.111  0.00  0.00     0.066 A 
ATOM     10  N   UNL d   1      24.701  11.787  -0.711  0.00  0.00    -0.198 NA
ATOM     11  C   UNL d   1      24.697  11.921  -1.520  0.00  0.00     0.148 A 
ENDBRANCH   1   4
BRANCH   1  12
ATOM     12  C   UNL d   1      24.520  12.518  -3.579  0.00  0.00     0.104 A 
ATOM     13  C   UNL d   1      24.546  13.224  -4.004  0.00  0.00     0.013 A 
ATOM     14  C   UNL d   1      24.626  13.209  -4.825  0.00  0.00     0.001 A 
ATOM     15  C   UNL d   1      24.680  12.486  -5.221  0.00  0.00     0.000 A 
ATOM     16  C   UNL d   1      24.654  11.779  -4.795  0.00  0.00     0.001 A 
ATOM     17  C   UNL d   1      24.760  12.480  -6.042  0.00  0.00     0.000 C 
ATOM     18  C   UNL d   1      24.574  11.795  -3.974  0.00  0.00     0.013 A 
ENDBRANCH   1  12
TORSDOF 2
ENDMDL
MODEL 2
REMARK VINA RESULT:      13.3     10.471     10.796
REMARK  2 active torsions:
REMARK  status: ('A' for Active; 'I' for Inactive)
REMARK    1  A    between atoms: S_2  and  N_1 
REMARK    2  A    between atoms: C_8  and  S_2 
ROOT
ATOM      1  S   UNL d   1      13.686  12.329  -2.602  0.00  0.00     0.273 S 
ATOM      2  O   UNL d   1      13.083  11.779  -2.509  0.00  0.00    -0.200 OA
ATOM      3  O   UNL d   1      14.294  12.880  -2.688  0.00  0.00    -0.200 OA
ENDROOT
BRANCH   1   4
ATOM      4  N   UNL d   1      13.908  12.192  -1.820  0.00  0.00    -0.207 N 
ATOM      5  C   UNL d   1      14.718  12.290  -1.669  0.00  0.00     0.148 A 
ATOM      6  N   UNL d   1      15.120  12.195  -0.947  0.00  0.00    -0.198 NA
ATOM      7  C   UNL d   1      14.825  11.986  -0.223  0.00  0.00     0.066 A 
ATOM      8  C   UNL d   1      14.154  12.079  -1.132  0.00  0.00     0.169 A 
ATOM      9  C   UNL d   1      14.051  11.814  -0.014  0.00  0.00     0.066 A 
ATOM     10  N   UNL d   1      13.376  11.810  -0.493  0.00  0.00    -0.198 NA
ATOM     11  C   UNL d   1      13.316  11.978  -1.294  0.00  0.00     0.148 A 
ENDBRANCH   1   4
BRANCH   1  12
ATOM     12  C   UNL d   1      13.457  12.461  -3.384  0.00  0.00     0.104 A 
ATOM     13  C   UNL d   1      13.316  11.820  -3.885  0.00  0.00     0.013 A 
ATOM     14  C   UNL d   1      13.087  11.952  -4.667  0.00  0.00     0.001 A 
ATOM     15  C   UNL d   1      12.998  12.724  -4.947  0.00  0.00     0.000 A 
ATOM     16  C   UNL d   1      13.139  13.364  -4.445  0.00  0.00     0.001 A 
ATOM     17  C   UNL d   1      12.769  12.846  -5.730  0.00  0.00     0.000 C 
ATOM     18  C   UNL d   1      13.368  13.232  -3.663  0.00  0.00     0.013 A 
ENDBRANCH   1  12
TORSDOF 2
ENDMDL
