MODEL 1
REMARK VINA RESULT:      37.2      0.000      0.000
REMARK  4 active torsions:
REMARK  status: ('A' for Active; 'I' for Inactive)
REMARK    1  A    between atoms: N_6  and  C_2 
REMARK    2  A    between atoms: C_7  and  C_3 
REMARK    3  A    between atoms: C_10  and  N_6 
REMARK    4  A    between atoms: O_14  and  C_11 
ROOT
ATOM      1  N   UNL d   1      58.753  49.707  50.307  0.00  0.00    -0.221 NA
ATOM      2  C   UNL d   1      58.395  49.678  49.567  0.00  0.00     0.194 A 
ATOM      3  C   UNL d   1      59.558  49.668  50.188  0.00  0.00     0.090 A 
ATOM      4  S   UNL d   1      58.992  49.623  49.014  0.00  0.00    -0.046 SA
ATOM      5  C   UNL d   1      59.711  49.616  49.386  0.00  0.00     0.058 A 
ENDROOT
BRANCH   3   6
ATOM      6  C   UNL d   1      60.182  49.674  50.728  0.00  0.00     0.018 A 
ATOM      7  C   UNL d   1      60.931  49.655  50.492  0.00  0.00     0.004 A 
ATOM      8  C   UNL d   1      61.550  49.661  51.051  0.00  0.00     0.024 A 
ATOM      9  C   UNL d   1      61.375  49.687  51.815  0.00  0.00     0.094 A 
ATOM     10  C   UNL d   1      60.609  49.707  52.083  0.00  0.00     0.024 A 
ATOM     11  C   UNL d   1      59.986  49.701  51.543  0.00  0.00     0.004 A 
BRANCH   9  12
ATOM     12  O   UNL d   1      62.017  49.693  52.377  0.00  0.00    -0.328 OA
ATOM     13  C   UNL d   1      61.828  49.674  53.184  0.00  0.00     0.181 C 
ENDBRANCH   9  12
ENDBRANCH   3   6
BRANCH   2  14
ATOM     14  N   UNL d   1      57.579  49.703  49.432  0.00  0.00    -0.221 NA
BRANCH  14  15
ATOM     15  C   UNL d   1      57.073  49.294  49.924  0.00  0.00     0.084 A 
ATOM     16  C   UNL d   1      57.034  49.464  50.740  0.00  0.00     0.019 A 
ATOM     17  C   UNL d   1      56.518  49.050  51.256  0.00  0.00     0.002 A 
ATOM     18  C   UNL d   1      56.033  48.455  50.945  0.00  0.00     0.000 A 
ATOM     19  C   UNL d   1      56.071  48.277  50.104  0.00  0.00     0.002 A 
ATOM     20  C   UNL d   1      56.579  48.688  49.608  0.00  0.00     0.019 A 
ENDBRANCH  14  15
ENDBRANCH   2  14
TORSDOF 4
ENDMDL
