MODEL 1
REMARK VINA RESULT:      -1.8      0.000      0.000
REMARK  5 active torsions:
REMARK  status: ('A' for Active; 'I' for Inactive)
REMARK    1  A    between atoms: C_10  and  C_3 
REMARK    2  A    between atoms: S_11  and  C_4 
REMARK    3  A    between atoms: C_17  and  S_11 
REMARK    4  A    between atoms: C_13  and  C_17 
REMARK       I    between atoms: N_14  and  C_13 
REMARK    5  A    between atoms: C_15  and  N_14 
ROOT
ATOM      1  C   UNL d   1      33.049  21.988 -22.688  0.00  0.00     0.150 A 
ATOM      2  N   UNL d   1      33.098  21.168 -22.797  0.00  0.00    -0.285 N 
ATOM      3  C   UNL d   1      33.093  22.483 -23.331  0.00  0.00     0.056 A 
ATOM      4  C   UNL d   1      33.190  20.869 -23.545  0.00  0.00     0.096 A 
ATOM      5  N   UNL d   1      32.956  22.300 -21.935  0.00  0.00    -0.227 NA
ATOM      6  C   UNL d   1      33.186  22.172 -24.090  0.00  0.00     0.006 A 
ATOM      7  C   UNL d   1      33.234  21.363 -24.188  0.00  0.00     0.025 A 
ATOM      8  C   UNL d   1      32.960  20.984 -21.391  0.00  0.00     0.084 A 
ATOM      9  C   UNL d   1      32.911  21.804 -21.283  0.00  0.00     0.099 A 
ATOM     10  C   UNL d   1      33.229  22.666 -24.725  0.00  0.00     0.000 C 
ATOM     11  C   UNL d   1      32.916  20.489 -20.747  0.00  0.00     0.019 A 
ATOM     12  C   UNL d   1      32.819  22.103 -20.535  0.00  0.00     0.021 A 
ATOM     13  C   UNL d   1      32.824  20.801 -19.998  0.00  0.00     0.002 A 
ATOM     14  C   UNL d   1      32.775  21.609 -19.891  0.00  0.00     0.002 A 
ENDROOT
BRANCH   4  15
ATOM     15  S   UNL d   1      33.240  20.031 -23.655  0.00  0.00    -0.064 SA
BRANCH  15  16
ATOM     16  C   UNL d   1      33.220  19.384 -24.208  0.00  0.00     0.099 C 
BRANCH  16  17
ATOM     17  C   UNL d   1      32.819  18.669 -24.006  0.00  0.00     0.286 C 
ATOM     18  N   UNL d   1      32.499  18.175 -24.620  0.00  0.00    -0.208 NA
ATOM     19  O   UNL d   1      32.731  18.439 -23.190  0.00  0.00    -0.265 OA
BRANCH  18  20
ATOM     20  C   UNL d   1      32.091  17.448 -24.417  0.00  0.00     0.085 A 
ATOM     21  C   UNL d   1      31.298  17.481 -24.143  0.00  0.00     0.019 A 
ATOM     22  C   UNL d   1      30.894  16.763 -23.943  0.00  0.00     0.002 A 
ATOM     23  C   UNL d   1      30.093  16.791 -23.666  0.00  0.00     0.000 C 
ATOM     24  C   UNL d   1      31.284  16.006 -24.016  0.00  0.00     0.000 A 
ATOM     25  C   UNL d   1      32.089  15.993 -24.296  0.00  0.00     0.002 A 
ATOM     26  C   UNL d   1      32.493  16.711 -24.496  0.00  0.00     0.019 A 
ENDBRANCH  18  20
ENDBRANCH  16  17
ENDBRANCH  15  16
ENDBRANCH   4  15
BRANCH   3  27
ATOM     27  C   UNL d   1      33.045  23.292 -23.234  0.00  0.00     0.125 C 
ATOM     28  N   UNL d   1      32.505  23.691 -23.698  0.00  0.00    -0.146 N 
ENDBRANCH   3  27
TORSDOF 5
ENDMDL
MODEL 2
REMARK VINA RESULT:      -0.2      1.460      5.598
REMARK  5 active torsions:
REMARK  status: ('A' for Active; 'I' for Inactive)
REMARK    1  A    between atoms: C_10  and  C_3 
REMARK    2  A    between atoms: S_11  and  C_4 
REMARK    3  A    between atoms: C_17  and  S_11 
REMARK    4  A    between atoms: C_13  and  C_17 
REMARK       I    between atoms: N_14  and  C_13 
REMARK    5  A    between atoms: C_15  and  N_14 
ROOT
ATOM      1  C   UNL d   1      31.482  17.109 -23.917  0.00  0.00     0.150 A 
ATOM      2  N   UNL d   1      31.750  17.893 -23.895  0.00  0.00    -0.285 N 
ATOM      3  C   UNL d   1      31.956  16.513 -23.634  0.00  0.00     0.056 A 
ATOM      4  C   UNL d   1      32.484  18.056 -23.591  0.00  0.00     0.096 A 
ATOM      5  N   UNL d   1      30.740  16.935 -24.223  0.00  0.00    -0.227 NA
ATOM      6  C   UNL d   1      32.702  16.685 -23.326  0.00  0.00     0.006 A 
ATOM      7  C   UNL d   1      32.958  17.460 -23.309  0.00  0.00     0.025 A 
ATOM      8  C   UNL d   1      30.526  18.318 -24.488  0.00  0.00     0.084 A 
ATOM      9  C   UNL d   1      30.258  17.534 -24.509  0.00  0.00     0.099 A 
ATOM     10  C   UNL d   1      33.169  16.092 -23.047  0.00  0.00     0.000 C 
ATOM     11  C   UNL d   1      30.051  18.914 -24.771  0.00  0.00     0.019 A 
ATOM     12  C   UNL d   1      29.524  17.371 -24.813  0.00  0.00     0.021 A 
ATOM     13  C   UNL d   1      29.313  18.739 -25.075  0.00  0.00     0.002 A 
ATOM     14  C   UNL d   1      29.049  17.967 -25.096  0.00  0.00     0.002 A 
ENDROOT
BRANCH   4  15
ATOM     15  S   UNL d   1      32.757  18.856 -23.569  0.00  0.00    -0.064 SA
BRANCH  15  16
ATOM     16  C   UNL d   1      33.240  19.432 -23.169  0.00  0.00     0.099 C 
BRANCH  16  17
ATOM     17  C   UNL d   1      33.064  20.254 -23.242  0.00  0.00     0.286 C 
ATOM     18  N   UNL d   1      33.115  20.762 -22.561  0.00  0.00    -0.208 NA
ATOM     19  O   UNL d   1      32.834  20.582 -23.995  0.00  0.00    -0.265 OA
BRANCH  18  20
ATOM     20  C   UNL d   1      32.936  21.597 -22.633  0.00  0.00     0.085 A 
ATOM     21  C   UNL d   1      32.546  21.994 -22.004  0.00  0.00     0.019 A 
ATOM     22  C   UNL d   1      32.369  22.819 -22.075  0.00  0.00     0.002 A 
ATOM     23  C   UNL d   1      31.975  23.224 -21.443  0.00  0.00     0.000 C 
ATOM     24  C   UNL d   1      32.583  23.254 -22.779  0.00  0.00     0.000 A 
ATOM     25  C   UNL d   1      32.979  22.835 -23.407  0.00  0.00     0.002 A 
ATOM     26  C   UNL d   1      33.156  22.009 -23.335  0.00  0.00     0.019 A 
ENDBRANCH  18  20
ENDBRANCH  16  17
ENDBRANCH  15  16
ENDBRANCH   4  15
BRANCH   3  27
ATOM     27  C   UNL d   1      31.700  15.738 -23.652  0.00  0.00     0.125 C 
ATOM     28  N   UNL d   1      31.335  15.452 -22.980  0.00  0.00    -0.146 N 
ENDBRANCH   3  27
TORSDOF 5
ENDMDL
