MODEL 1
REMARK VINA RESULT:      12.8      0.000      0.000
REMARK  1 active torsions:
REMARK  status: ('A' for Active; 'I' for Inactive)
REMARK    1  A    between atoms: C_4  and  C_1 
ROOT
ATOM      1  C   UNL d   1     -51.829  25.368  33.318  0.00  0.00     0.163 A 
ATOM      2  N   UNL d   1     -52.154  26.126  33.315  0.00  0.00    -0.225 NA
ATOM      3  N   UNL d   1     -51.000  25.444  33.318  0.00  0.00    -0.225 NA
ATOM      4  C   UNL d   1     -51.535  26.675  33.312  0.00  0.00     0.101 A 
ATOM      5  C   UNL d   1     -50.818  26.251  33.315  0.00  0.00     0.101 A 
ATOM      6  C   UNL d   1     -51.524  27.506  33.309  0.00  0.00     0.021 A 
ATOM      7  C   UNL d   1     -50.098  26.663  33.313  0.00  0.00     0.021 A 
ATOM      8  C   UNL d   1     -50.090  27.484  33.309  0.00  0.00     0.002 A 
ATOM      9  C   UNL d   1     -50.800  27.904  33.307  0.00  0.00     0.002 A 
ENDROOT
BRANCH   1  10
ATOM     10  C   UNL d   1     -52.248  24.659  33.321  0.00  0.00     0.046 A 
ATOM     11  C   UNL d   1     -51.842  23.949  33.332  0.00  0.00     0.061 A 
ATOM     12 CL   UNL d   1     -51.011  23.952  33.340  0.00  0.00    -0.082 Cl
ATOM     13  C   UNL d   1     -52.254  23.250  33.335  0.00  0.00     0.011 A 
ATOM     14  C   UNL d   1     -53.081  23.249  33.327  0.00  0.00     0.001 A 
ATOM     15  C   UNL d   1     -53.485  23.964  33.316  0.00  0.00     0.000 A 
ATOM     16  C   UNL d   1     -53.067  24.672  33.313  0.00  0.00     0.004 A 
ENDBRANCH   1  10
TORSDOF 1
ENDMDL
