MODEL 1
REMARK VINA RESULT:      17.3      0.000      0.000
REMARK  1 active torsions:
REMARK  status: ('A' for Active; 'I' for Inactive)
REMARK    1  A    between atoms: C_6  and  C_1 
ROOT
ATOM      1  C   UNL d   1     -58.444 -98.829 -44.188  0.00  0.00     0.128 A 
ATOM      2  C   UNL d   1     -58.481 -98.782 -45.011  0.00  0.00     0.306 A 
ATOM      3  C   UNL d   1     -57.705 -98.856 -43.805  0.00  0.00     0.013 A 
ATOM      4  O   UNL d   1     -57.780 -98.761 -45.455  0.00  0.00    -0.273 OA
ATOM      5  C   UNL d   1     -57.013 -98.835 -44.253  0.00  0.00     0.023 A 
ATOM      6  C   UNL d   1     -57.050 -98.788 -45.075  0.00  0.00     0.103 A 
ATOM      7  O   UNL d   1     -59.211 -98.755 -45.390  0.00  0.00    -0.259 OA
ATOM      8  C   UNL d   1     -56.282 -98.862 -43.874  0.00  0.00     0.002 A 
ATOM      9  C   UNL d   1     -56.356 -98.767 -45.519  0.00  0.00     0.025 A 
ATOM     10  C   UNL d   1     -55.589 -98.841 -44.317  0.00  0.00     0.000 A 
ATOM     11  C   UNL d   1     -55.626 -98.793 -45.140  0.00  0.00     0.002 A 
ATOM     12  C   UNL d   1     -54.858 -98.868 -43.938  0.00  0.00     0.000 C 
ENDROOT
BRANCH   1  13
ATOM     13  C   UNL d   1     -59.142 -98.850 -43.745  0.00  0.00     0.216 C 
ATOM     14  O   UNL d   1     -59.109 -98.789 -42.923  0.00  0.00    -0.644 OA
ATOM     15  O   UNL d   1     -59.868 -98.933 -44.123  0.00  0.00    -0.644 OA
ENDBRANCH   1  13
TORSDOF 1
ENDMDL
MODEL 2
REMARK VINA RESULT:      18.2      6.693      7.634
REMARK  1 active torsions:
REMARK  status: ('A' for Active; 'I' for Inactive)
REMARK    1  A    between atoms: C_6  and  C_1 
ROOT
ATOM      1  C   UNL d   1     -54.792-101.639 -39.428  0.00  0.00     0.128 A 
ATOM      2  C   UNL d   1     -54.781-102.464 -39.429  0.00  0.00     0.306 A 
ATOM      3  C   UNL d   1     -54.792-101.222 -38.707  0.00  0.00     0.013 A 
ATOM      4  O   UNL d   1     -54.771-102.877 -38.708  0.00  0.00    -0.273 OA
ATOM      5  C   UNL d   1     -54.782-101.640 -37.995  0.00  0.00     0.023 A 
ATOM      6  C   UNL d   1     -54.772-102.464 -37.996  0.00  0.00     0.103 A 
ATOM      7  O   UNL d   1     -54.780-102.877 -40.141  0.00  0.00    -0.259 OA
ATOM      8  C   UNL d   1     -54.783-101.228 -37.282  0.00  0.00     0.002 A 
ATOM      9  C   UNL d   1     -54.762-102.878 -37.283  0.00  0.00     0.025 A 
ATOM     10  C   UNL d   1     -54.773-101.640 -36.570  0.00  0.00     0.000 A 
ATOM     11  C   UNL d   1     -54.762-102.465 -36.571  0.00  0.00     0.002 A 
ATOM     12  C   UNL d   1     -54.774-101.228 -35.857  0.00  0.00     0.000 C 
ENDROOT
BRANCH   1  13
ATOM     13  C   UNL d   1     -54.802-101.227 -40.145  0.00  0.00     0.216 C 
ATOM     14  O   UNL d   1     -54.714-100.406 -40.149  0.00  0.00    -0.644 OA
ATOM     15  O   UNL d   1     -54.899-101.634 -40.853  0.00  0.00    -0.644 OA
ENDBRANCH   1  13
TORSDOF 1
ENDMDL
MODEL 3
REMARK VINA RESULT:      19.3      1.222      3.019
REMARK  1 active torsions:
REMARK  status: ('A' for Active; 'I' for Inactive)
REMARK    1  A    between atoms: C_6  and  C_1 
ROOT
ATOM      1  C   UNL d   1     -56.597 -98.852 -44.346  0.00  0.00     0.128 A 
ATOM      2  C   UNL d   1     -56.809 -98.839 -45.143  0.00  0.00     0.306 A 
ATOM      3  C   UNL d   1     -57.186 -98.840 -43.758  0.00  0.00     0.013 A 
ATOM      4  O   UNL d   1     -57.611 -98.815 -45.357  0.00  0.00    -0.273 OA
ATOM      5  C   UNL d   1     -57.981 -98.816 -43.977  0.00  0.00     0.023 A 
ATOM      6  C   UNL d   1     -58.193 -98.804 -44.775  0.00  0.00     0.103 A 
ATOM      7  O   UNL d   1     -56.227 -98.851 -45.725  0.00  0.00    -0.259 OA
ATOM      8  C   UNL d   1     -58.564 -98.804 -43.396  0.00  0.00     0.002 A 
ATOM      9  C   UNL d   1     -58.988 -98.779 -44.991  0.00  0.00     0.025 A 
ATOM     10  C   UNL d   1     -59.358 -98.780 -43.611  0.00  0.00     0.000 A 
ATOM     11  C   UNL d   1     -59.570 -98.768 -44.408  0.00  0.00     0.002 A 
ATOM     12  C   UNL d   1     -59.941 -98.769 -43.030  0.00  0.00     0.000 C 
ENDROOT
BRANCH   1  13
ATOM     13  C   UNL d   1     -55.799 -98.876 -44.132  0.00  0.00     0.216 C 
ATOM     14  O   UNL d   1     -55.216 -98.818 -44.713  0.00  0.00    -0.644 OA
ATOM     15  O   UNL d   1     -55.586 -98.957 -43.342  0.00  0.00    -0.644 OA
ENDBRANCH   1  13
TORSDOF 1
ENDMDL
