MODEL 1
REMARK VINA RESULT:      -3.0      0.000      0.000
REMARK  4 active torsions:
REMARK  status: ('A' for Active; 'I' for Inactive)
REMARK    1  A    between atoms: C_4  and  C_3 
REMARK    2  A    between atoms: S_8  and  C_5 
REMARK    3  A    between atoms: C_13  and  S_8 
REMARK    4  A    between atoms: C_14  and  C_13 
ROOT
ATOM      1  N   UNL d   1      32.869  19.272 -22.129  0.00  0.00    -0.146 NA
ATOM      2  N   UNL d   1      32.910  19.953 -21.682  0.00  0.00    -0.141 NA
ATOM      3  C   UNL d   1      33.014  19.308 -22.939  0.00  0.00     0.126 A 
ATOM      4  C   UNL d   1      33.094  20.670 -22.025  0.00  0.00     0.132 A 
ATOM      5  C   UNL d   1      33.201  20.030 -23.294  0.00  0.00     0.025 A 
ATOM      6  C   UNL d   1      33.240  20.703 -22.842  0.00  0.00     0.029 A 
ENDROOT
BRANCH   4   7
ATOM      7  S   UNL d   1      33.135  21.356 -21.570  0.00  0.00    -0.066 SA
BRANCH   7   8
ATOM      8  C   UNL d   1      32.532  21.542 -21.048  0.00  0.00     0.037 C 
BRANCH   8   9
ATOM      9  C   UNL d   1      32.546  22.266 -20.652  0.00  0.00     0.006 A 
ATOM     10  C   UNL d   1      32.112  22.899 -20.943  0.00  0.00     0.001 A 
ATOM     11  C   UNL d   1      32.121  23.618 -20.557  0.00  0.00     0.000 A 
ATOM     12  C   UNL d   1      32.573  23.702 -19.866  0.00  0.00     0.000 A 
ATOM     13  C   UNL d   1      33.002  23.068 -19.582  0.00  0.00     0.000 A 
ATOM     14  C   UNL d   1      32.985  22.346 -19.981  0.00  0.00     0.001 A 
ENDBRANCH   8   9
ENDBRANCH   7   8
ENDBRANCH   4   7
BRANCH   3  15
ATOM     15  C   UNL d   1      32.974  18.627 -23.396  0.00  0.00     0.119 A 
ATOM     16  O   UNL d   1      32.944  18.588 -24.216  0.00  0.00    -0.304 OA
ATOM     17  C   UNL d   1      32.908  17.798 -24.445  0.00  0.00     0.123 A 
ATOM     18  C   UNL d   1      32.916  17.336 -23.750  0.00  0.00     0.029 A 
ATOM     19  C   UNL d   1      32.956  17.846 -23.102  0.00  0.00     0.028 A 
ENDBRANCH   3  15
TORSDOF 4
ENDMDL
MODEL 2
REMARK VINA RESULT:      -2.6      1.016      1.649
REMARK  4 active torsions:
REMARK  status: ('A' for Active; 'I' for Inactive)
REMARK    1  A    between atoms: C_4  and  C_3 
REMARK    2  A    between atoms: S_8  and  C_5 
REMARK    3  A    between atoms: C_13  and  S_8 
REMARK    4  A    between atoms: C_14  and  C_13 
ROOT
ATOM      1  N   UNL d   1      32.720  18.044 -22.893  0.00  0.00    -0.146 NA
ATOM      2  N   UNL d   1      32.867  18.718 -22.456  0.00  0.00    -0.141 NA
ATOM      3  C   UNL d   1      32.793  18.067 -23.713  0.00  0.00     0.126 A 
ATOM      4  C   UNL d   1      33.085  19.415 -22.821  0.00  0.00     0.132 A 
ATOM      5  C   UNL d   1      33.013  18.768 -24.089  0.00  0.00     0.025 A 
ATOM      6  C   UNL d   1      33.157  19.435 -23.648  0.00  0.00     0.029 A 
ENDROOT
BRANCH   4   7
ATOM      7  S   UNL d   1      33.232  20.093 -22.377  0.00  0.00    -0.066 SA
BRANCH   7   8
ATOM      8  C   UNL d   1      32.668  20.376 -21.856  0.00  0.00     0.037 C 
BRANCH   8   9
ATOM      9  C   UNL d   1      32.826  21.055 -21.414  0.00  0.00     0.006 A 
ATOM     10  C   UNL d   1      33.071  20.987 -20.633  0.00  0.00     0.001 A 
ATOM     11  C   UNL d   1      33.229  21.654 -20.190  0.00  0.00     0.000 A 
ATOM     12  C   UNL d   1      33.140  22.403 -20.538  0.00  0.00     0.000 A 
ATOM     13  C   UNL d   1      32.896  22.463 -21.314  0.00  0.00     0.000 A 
ATOM     14  C   UNL d   1      32.739  21.782 -21.753  0.00  0.00     0.001 A 
ENDBRANCH   8   9
ENDBRANCH   7   8
ENDBRANCH   4   7
BRANCH   3  15
ATOM     15  C   UNL d   1      32.647  17.393 -24.159  0.00  0.00     0.119 A 
ATOM     16  O   UNL d   1      33.163  17.035 -24.688  0.00  0.00    -0.304 OA
ATOM     17  C   UNL d   1      32.796  16.374 -25.014  0.00  0.00     0.123 A 
ATOM     18  C   UNL d   1      32.034  16.321 -24.678  0.00  0.00     0.029 A 
ATOM     19  C   UNL d   1      31.941  16.949 -24.150  0.00  0.00     0.028 A 
ENDBRANCH   3  15
TORSDOF 4
ENDMDL
MODEL 3
REMARK VINA RESULT:      -2.5      1.480      5.048
REMARK  4 active torsions:
REMARK  status: ('A' for Active; 'I' for Inactive)
REMARK    1  A    between atoms: C_4  and  C_3 
REMARK    2  A    between atoms: S_8  and  C_5 
REMARK    3  A    between atoms: C_13  and  S_8 
REMARK    4  A    between atoms: C_14  and  C_13 
ROOT
ATOM      1  N   UNL d   1      33.178  19.980 -21.208  0.00  0.00    -0.146 NA
ATOM      2  N   UNL d   1      33.222  19.310 -21.672  0.00  0.00    -0.141 NA
ATOM      3  C   UNL d   1      33.078  20.715 -21.567  0.00  0.00     0.126 A 
ATOM      4  C   UNL d   1      33.168  19.357 -22.485  0.00  0.00     0.132 A 
ATOM      5  C   UNL d   1      33.022  20.771 -22.388  0.00  0.00     0.025 A 
ATOM      6  C   UNL d   1      33.067  20.100 -22.842  0.00  0.00     0.029 A 
ENDROOT
BRANCH   4   7
ATOM      7  S   UNL d   1      33.213  18.677 -22.948  0.00  0.00    -0.066 SA
BRANCH   7   8
ATOM      8  C   UNL d   1      32.602  18.132 -22.944  0.00  0.00     0.037 C 
BRANCH   8   9
ATOM      9  C   UNL d   1      32.621  17.495 -23.468  0.00  0.00     0.006 A 
ATOM     10  C   UNL d   1      32.030  17.414 -24.033  0.00  0.00     0.001 A 
ATOM     11  C   UNL d   1      32.042  16.786 -24.555  0.00  0.00     0.000 A 
ATOM     12  C   UNL d   1      32.657  16.231 -24.509  0.00  0.00     0.000 A 
ATOM     13  C   UNL d   1      33.241  16.319 -23.945  0.00  0.00     0.000 A 
ATOM     14  C   UNL d   1      33.219  16.957 -23.422  0.00  0.00     0.001 A 
ENDBRANCH   8   9
ENDBRANCH   7   8
ENDBRANCH   4   7
BRANCH   3  15
ATOM     15  C   UNL d   1      33.033  21.394 -21.107  0.00  0.00     0.119 A 
ATOM     16  O   UNL d   1      33.240  21.464 -20.315  0.00  0.00    -0.304 OA
ATOM     17  C   UNL d   1      33.109  22.239 -20.071  0.00  0.00     0.123 A 
ATOM     18  C   UNL d   1      32.813  22.660 -20.727  0.00  0.00     0.029 A 
ATOM     19  C   UNL d   1      32.765  22.140 -21.367  0.00  0.00     0.028 A 
ENDBRANCH   3  15
TORSDOF 4
ENDMDL
MODEL 4
REMARK VINA RESULT:      -2.2      3.528      5.293
REMARK  4 active torsions:
REMARK  status: ('A' for Active; 'I' for Inactive)
REMARK    1  A    between atoms: C_4  and  C_3 
REMARK    2  A    between atoms: S_8  and  C_5 
REMARK    3  A    between atoms: C_13  and  S_8 
REMARK    4  A    between atoms: C_14  and  C_13 
ROOT
ATOM      1  N   UNL d   1      32.406  23.522 -19.348  0.00  0.00    -0.146 NA
ATOM      2  N   UNL d   1      32.399  23.451 -20.161  0.00  0.00    -0.141 NA
ATOM      3  C   UNL d   1      32.825  22.976 -18.896  0.00  0.00     0.126 A 
ATOM      4  C   UNL d   1      32.802  22.847 -20.533  0.00  0.00     0.132 A 
ATOM      5  C   UNL d   1      33.235  22.362 -19.264  0.00  0.00     0.025 A 
ATOM      6  C   UNL d   1      33.224  22.298 -20.073  0.00  0.00     0.029 A 
ENDROOT
BRANCH   4   7
ATOM      7  S   UNL d   1      32.793  22.778 -21.354  0.00  0.00    -0.066 SA
BRANCH   7   8
ATOM      8  C   UNL d   1      32.599  23.422 -21.820  0.00  0.00     0.037 C 
BRANCH   8   9
ATOM      9  C   UNL d   1      32.616  23.350 -22.642  0.00  0.00     0.006 A 
ATOM     10  C   UNL d   1      33.216  22.922 -23.003  0.00  0.00     0.001 A 
ATOM     11  C   UNL d   1      33.239  22.845 -23.815  0.00  0.00     0.000 A 
ATOM     12  C   UNL d   1      32.649  23.206 -24.273  0.00  0.00     0.000 A 
ATOM     13  C   UNL d   1      32.055  23.630 -23.908  0.00  0.00     0.000 A 
ATOM     14  C   UNL d   1      32.041  23.700 -23.086  0.00  0.00     0.001 A 
ENDBRANCH   8   9
ENDBRANCH   7   8
ENDBRANCH   4   7
BRANCH   3  15
ATOM     15  C   UNL d   1      32.836  23.042 -18.078  0.00  0.00     0.119 A 
ATOM     16  O   UNL d   1      33.109  22.479 -17.545  0.00  0.00    -0.304 OA
ATOM     17  C   UNL d   1      33.019  22.769 -16.780  0.00  0.00     0.123 A 
ATOM     18  C   UNL d   1      32.681  23.529 -16.839  0.00  0.00     0.029 A 
ATOM     19  C   UNL d   1      32.567  23.699 -17.639  0.00  0.00     0.028 A 
ENDBRANCH   3  15
TORSDOF 4
ENDMDL
MODEL 5
REMARK VINA RESULT:      -2.0      1.924      5.018
REMARK  4 active torsions:
REMARK  status: ('A' for Active; 'I' for Inactive)
REMARK    1  A    between atoms: C_4  and  C_3 
REMARK    2  A    between atoms: S_8  and  C_5 
REMARK    3  A    between atoms: C_13  and  S_8 
REMARK    4  A    between atoms: C_14  and  C_13 
ROOT
ATOM      1  N   UNL d   1      32.029  21.658 -19.996  0.00  0.00    -0.146 NA
ATOM      2  N   UNL d   1      32.005  21.155 -20.639  0.00  0.00    -0.141 NA
ATOM      3  C   UNL d   1      32.643  22.202 -19.929  0.00  0.00     0.126 A 
ATOM      4  C   UNL d   1      32.582  21.184 -21.216  0.00  0.00     0.132 A 
ATOM      5  C   UNL d   1      33.230  22.238 -20.508  0.00  0.00     0.025 A 
ATOM      6  C   UNL d   1      33.200  21.735 -21.145  0.00  0.00     0.029 A 
ENDROOT
BRANCH   4   7
ATOM      7  S   UNL d   1      32.555  20.674 -21.863  0.00  0.00    -0.066 SA
BRANCH   7   8
ATOM      8  C   UNL d   1      33.241  20.333 -22.149  0.00  0.00     0.037 C 
BRANCH   8   9
ATOM      9  C   UNL d   1      33.192  19.673 -22.643  0.00  0.00     0.006 A 
ATOM     10  C   UNL d   1      33.137  18.922 -22.317  0.00  0.00     0.001 A 
ATOM     11  C   UNL d   1      33.088  18.265 -22.798  0.00  0.00     0.000 A 
ATOM     12  C   UNL d   1      33.095  18.364 -23.623  0.00  0.00     0.000 A 
ATOM     13  C   UNL d   1      33.150  19.114 -23.940  0.00  0.00     0.000 A 
ATOM     14  C   UNL d   1      33.199  19.771 -23.443  0.00  0.00     0.001 A 
ENDBRANCH   8   9
ENDBRANCH   7   8
ENDBRANCH   4   7
BRANCH   3  15
ATOM     15  C   UNL d   1      32.673  22.711 -19.285  0.00  0.00     0.119 A 
ATOM     16  O   UNL d   1      32.165  23.338 -19.133  0.00  0.00    -0.304 OA
ATOM     17  C   UNL d   1      32.391  23.702 -18.431  0.00  0.00     0.123 A 
ATOM     18  C   UNL d   1      33.057  23.291 -18.141  0.00  0.00     0.029 A 
ATOM     19  C   UNL d   1      33.232  22.680 -18.667  0.00  0.00     0.028 A 
ENDBRANCH   3  15
TORSDOF 4
ENDMDL
MODEL 6
REMARK VINA RESULT:      -0.4      1.791      2.555
REMARK  4 active torsions:
REMARK  status: ('A' for Active; 'I' for Inactive)
REMARK    1  A    between atoms: C_4  and  C_3 
REMARK    2  A    between atoms: S_8  and  C_5 
REMARK    3  A    between atoms: C_13  and  S_8 
REMARK    4  A    between atoms: C_14  and  C_13 
ROOT
ATOM      1  N   UNL d   1      32.513  18.116 -22.871  0.00  0.00    -0.146 NA
ATOM      2  N   UNL d   1      32.777  18.888 -22.896  0.00  0.00    -0.141 NA
ATOM      3  C   UNL d   1      32.391  17.706 -23.575  0.00  0.00     0.126 A 
ATOM      4  C   UNL d   1      32.923  19.259 -23.608  0.00  0.00     0.132 A 
ATOM      5  C   UNL d   1      32.537  18.074 -24.299  0.00  0.00     0.025 A 
ATOM      6  C   UNL d   1      32.800  18.842 -24.316  0.00  0.00     0.029 A 
ENDROOT
BRANCH   4   7
ATOM      7  S   UNL d   1      33.190  20.038 -23.628  0.00  0.00    -0.066 SA
BRANCH   7   8
ATOM      8  C   UNL d   1      33.028  20.547 -23.009  0.00  0.00     0.037 C 
BRANCH   8   9
ATOM      9  C   UNL d   1      33.043  21.362 -23.137  0.00  0.00     0.006 A 
ATOM     10  C   UNL d   1      33.224  21.656 -23.882  0.00  0.00     0.001 A 
ATOM     11  C   UNL d   1      33.240  22.461 -24.016  0.00  0.00     0.000 A 
ATOM     12  C   UNL d   1      33.072  22.980 -23.391  0.00  0.00     0.000 A 
ATOM     13  C   UNL d   1      32.893  22.681 -22.653  0.00  0.00     0.000 A 
ATOM     14  C   UNL d   1      32.879  21.866 -22.528  0.00  0.00     0.001 A 
ENDBRANCH   8   9
ENDBRANCH   7   8
ENDBRANCH   4   7
BRANCH   3  15
ATOM     15  C   UNL d   1      32.125  16.929 -23.558  0.00  0.00     0.119 A 
ATOM     16  O   UNL d   1      32.099  16.435 -22.902  0.00  0.00    -0.304 OA
ATOM     17  C   UNL d   1      31.795  15.705 -23.129  0.00  0.00     0.123 A 
ATOM     18  C   UNL d   1      31.628  15.747 -23.945  0.00  0.00     0.029 A 
ATOM     19  C   UNL d   1      31.832  16.501 -24.211  0.00  0.00     0.028 A 
ENDBRANCH   3  15
TORSDOF 4
ENDMDL
MODEL 7
REMARK VINA RESULT:      -0.2      3.849      5.335
REMARK  4 active torsions:
REMARK  status: ('A' for Active; 'I' for Inactive)
REMARK    1  A    between atoms: C_4  and  C_3 
REMARK    2  A    between atoms: S_8  and  C_5 
REMARK    3  A    between atoms: C_13  and  S_8 
REMARK    4  A    between atoms: C_14  and  C_13 
ROOT
ATOM      1  N   UNL d   1      29.488  17.128 -24.356  0.00  0.00    -0.146 NA
ATOM      2  N   UNL d   1      30.244  17.436 -24.363  0.00  0.00    -0.141 NA
ATOM      3  C   UNL d   1      29.360  16.375 -24.046  0.00  0.00     0.126 A 
ATOM      4  C   UNL d   1      30.874  17.010 -24.069  0.00  0.00     0.132 A 
ATOM      5  C   UNL d   1      29.992  15.938 -23.746  0.00  0.00     0.025 A 
ATOM      6  C   UNL d   1      30.741  16.251 -23.757  0.00  0.00     0.029 A 
ENDROOT
BRANCH   4   7
ATOM      7  S   UNL d   1      31.636  17.324 -24.078  0.00  0.00    -0.066 SA
BRANCH   7   8
ATOM      8  C   UNL d   1      31.885  17.786 -24.707  0.00  0.00     0.037 C 
BRANCH   8   9
ATOM      9  C   UNL d   1      32.335  18.462 -24.563  0.00  0.00     0.006 A 
ATOM     10  C   UNL d   1      32.319  19.086 -25.097  0.00  0.00     0.001 A 
ATOM     11  C   UNL d   1      32.761  19.757 -24.961  0.00  0.00     0.000 A 
ATOM     12  C   UNL d   1      33.229  19.804 -24.277  0.00  0.00     0.000 A 
ATOM     13  C   UNL d   1      33.241  19.180 -23.751  0.00  0.00     0.000 A 
ATOM     14  C   UNL d   1      32.789  18.506 -23.898  0.00  0.00     0.001 A 
ENDBRANCH   8   9
ENDBRANCH   7   8
ENDBRANCH   4   7
BRANCH   3  15
ATOM     15  C   UNL d   1      28.602  16.059 -24.035  0.00  0.00     0.119 A 
ATOM     16  O   UNL d   1      28.207  15.712 -24.667  0.00  0.00    -0.304 OA
ATOM     17  C   UNL d   1      27.462  15.470 -24.416  0.00  0.00     0.123 A 
ATOM     18  C   UNL d   1      27.393  15.671 -23.609  0.00  0.00     0.029 A 
ATOM     19  C   UNL d   1      28.095  16.035 -23.373  0.00  0.00     0.028 A 
ENDBRANCH   3  15
TORSDOF 4
ENDMDL
