MODEL 1
REMARK VINA RESULT:      48.3      0.000      0.000
REMARK  3 active torsions:
REMARK  status: ('A' for Active; 'I' for Inactive)
REMARK    1  A    between atoms: C_7  and  C_3 
REMARK       I    between atoms: N_10  and  C_7 
REMARK    2  A    between atoms: C_16  and  N_10 
REMARK    3  A    between atoms: C_15  and  C_16 
ROOT
ATOM      1  C   UNL d   1      13.380  14.104  -4.912  0.00  0.00     0.063 A 
ATOM      2  C   UNL d   1      13.206  13.340  -4.640  0.00  0.00     0.033 A 
ATOM      3  C   UNL d   1      13.390  13.312  -3.832  0.00  0.00     0.158 A 
ATOM      4  C   UNL d   1      13.669  14.545  -4.277  0.00  0.00     0.099 A 
ATOM      5  O   UNL d   1      13.675  14.055  -3.610  0.00  0.00    -0.302 OA
ATOM      6  C   UNL d   1      13.306  14.443  -5.666  0.00  0.00     0.194 A 
ATOM      7  C   UNL d   1      13.885  15.326  -4.393  0.00  0.00     0.002 A 
ATOM      8  C   UNL d   1      13.820  15.678  -5.127  0.00  0.00     0.042 A 
ATOM      9  C   UNL d   1      13.530  15.236  -5.765  0.00  0.00     0.019 A 
ATOM     10  O   UNL d   1      13.014  13.998  -6.307  0.00  0.00    -0.287 OA
ATOM     11  C   UNL d   1      12.912  12.631  -4.945  0.00  0.00     0.002 C 
ATOM     12  C   UNL d   1      13.908  16.337  -5.624  0.00  0.00     0.009 C 
ATOM     13  C   UNL d   1      14.121  16.274  -4.645  0.00  0.00     0.009 C 
ENDROOT
BRANCH   3  14
ATOM     14  C   UNL d   1      13.304  12.659  -3.335  0.00  0.00     0.302 C 
ATOM     15  N   UNL d   1      13.728  12.619  -2.622  0.00  0.00    -0.205 NA
ATOM     16  O   UNL d   1      12.794  12.038  -3.547  0.00  0.00    -0.263 OA
BRANCH  15  17
ATOM     17  C   UNL d   1      13.645  11.967  -2.122  0.00  0.00     0.104 C 
BRANCH  17  18
ATOM     18  C   UNL d   1      14.088  11.921  -1.429  0.00  0.00     0.038 A 
ATOM     19  C   UNL d   1      14.911  11.970  -1.465  0.00  0.00     0.101 A 
ATOM     20  N   UNL d   1      15.345  11.923  -0.772  0.00  0.00    -0.242 NA
ATOM     21  C   UNL d   1      14.978  11.828  -0.048  0.00  0.00     0.099 A 
ATOM     22  C   UNL d   1      14.150  11.779  -0.017  0.00  0.00     0.021 A 
ATOM     23  C   UNL d   1      13.708  11.826  -0.710  0.00  0.00     0.005 A 
ENDBRANCH  17  18
ENDBRANCH  15  17
ENDBRANCH   3  14
TORSDOF 3
ENDMDL
