MODEL 1
REMARK VINA RESULT:      -2.7      0.000      0.000
REMARK  1 active torsions:
REMARK  status: ('A' for Active; 'I' for Inactive)
REMARK    1  A    between atoms: C_4  and  C_1 
REMARK       I    between atoms: N_5  and  C_1 
ROOT
ATOM      1  N   UNL d   1      33.038  21.026 -21.751  0.00  0.00    -0.242 NA
ATOM      2  C   UNL d   1      32.278  22.312 -21.038  0.00  0.00     0.062 A 
ATOM      3  C   UNL d   1      33.130  21.789 -22.055  0.00  0.00     0.099 A 
ATOM      4  C   UNL d   1      32.560  20.913 -21.083  0.00  0.00     0.099 A 
ATOM      5  C   UNL d   1      32.181  21.554 -20.728  0.00  0.00     0.025 A 
ATOM      6  C   UNL d   1      32.751  22.430 -21.700  0.00  0.00     0.025 A 
ENDROOT
BRANCH   2   7
ATOM      7  C   UNL d   1      32.100  22.708 -20.895  0.00  0.00     0.298 C 
ATOM      8  O   UNL d   1      31.620  23.157 -21.208  0.00  0.00    -0.264 OA
ATOM      9  N   UNL d   1      32.309  22.992 -20.216  0.00  0.00    -0.085 NA
ATOM     10  N   UNL d   1      32.651  22.605 -20.069  0.00  0.00    -0.019 N 
ENDBRANCH   2   7
TORSDOF 1
ENDMDL
MODEL 2
REMARK VINA RESULT:      -2.6      1.211      2.007
REMARK  1 active torsions:
REMARK  status: ('A' for Active; 'I' for Inactive)
REMARK    1  A    between atoms: C_4  and  C_1 
REMARK       I    between atoms: N_5  and  C_1 
ROOT
ATOM      1  N   UNL d   1      33.053  23.397 -19.578  0.00  0.00    -0.242 NA
ATOM      2  C   UNL d   1      32.280  22.400 -20.650  0.00  0.00     0.062 A 
ATOM      3  C   UNL d   1      33.225  22.589 -19.598  0.00  0.00     0.099 A 
ATOM      4  C   UNL d   1      32.489  23.702 -20.103  0.00  0.00     0.099 A 
ATOM      5  C   UNL d   1      32.104  23.206 -20.637  0.00  0.00     0.025 A 
ATOM      6  C   UNL d   1      32.840  22.092 -20.132  0.00  0.00     0.025 A 
ENDROOT
BRANCH   2   7
ATOM      7  C   UNL d   1      32.108  22.071 -20.916  0.00  0.00     0.298 C 
ATOM      8  O   UNL d   1      31.713  21.482 -20.751  0.00  0.00    -0.264 OA
ATOM      9  N   UNL d   1      32.225  22.095 -21.672  0.00  0.00    -0.085 NA
ATOM     10  N   UNL d   1      32.514  22.548 -21.694  0.00  0.00    -0.019 N 
ENDBRANCH   2   7
TORSDOF 1
ENDMDL
MODEL 3
REMARK VINA RESULT:      -2.2      6.696      7.315
REMARK  1 active torsions:
REMARK  status: ('A' for Active; 'I' for Inactive)
REMARK    1  A    between atoms: C_4  and  C_1 
REMARK       I    between atoms: N_5  and  C_1 
ROOT
ATOM      1  N   UNL d   1      28.341  15.546 -23.888  0.00  0.00    -0.242 NA
ATOM      2  C   UNL d   1      28.926  16.993 -24.436  0.00  0.00     0.062 A 
ATOM      3  C   UNL d   1      28.200  16.241 -23.465  0.00  0.00     0.099 A 
ATOM      4  C   UNL d   1      28.778  15.582 -24.591  0.00  0.00     0.099 A 
ATOM      5  C   UNL d   1      29.070  16.303 -24.864  0.00  0.00     0.025 A 
ATOM      6  C   UNL d   1      28.492  16.963 -23.738  0.00  0.00     0.025 A 
ENDROOT
BRANCH   2   7
ATOM      7  C   UNL d   1      29.055  17.422 -24.527  0.00  0.00     0.298 C 
ATOM      8  O   UNL d   1      28.663  18.026 -24.635  0.00  0.00    -0.264 OA
ATOM      9  N   UNL d   1      29.800  17.588 -24.586  0.00  0.00    -0.085 NA
ATOM     10  N   UNL d   1      29.998  17.098 -24.494  0.00  0.00    -0.019 N 
ENDBRANCH   2   7
TORSDOF 1
ENDMDL
MODEL 4
REMARK VINA RESULT:      -1.9      5.108      5.752
REMARK  1 active torsions:
REMARK  status: ('A' for Active; 'I' for Inactive)
REMARK    1  A    between atoms: C_4  and  C_1 
REMARK       I    between atoms: N_5  and  C_1 
ROOT
ATOM      1  N   UNL d   1      30.956  16.325 -23.964  0.00  0.00    -0.242 NA
ATOM      2  C   UNL d   1      31.903  17.681 -23.934  0.00  0.00     0.062 A 
ATOM      3  C   UNL d   1      31.664  16.332 -23.538  0.00  0.00     0.099 A 
ATOM      4  C   UNL d   1      30.726  17.005 -24.376  0.00  0.00     0.099 A 
ATOM      5  C   UNL d   1      31.198  17.682 -24.362  0.00  0.00     0.025 A 
ATOM      6  C   UNL d   1      32.136  17.008 -23.523  0.00  0.00     0.025 A 
ENDROOT
BRANCH   2   7
ATOM      7  C   UNL d   1      32.210  18.016 -23.883  0.00  0.00     0.298 C 
ATOM      8  O   UNL d   1      32.457  18.349 -23.284  0.00  0.00    -0.264 OA
ATOM      9  N   UNL d   1      32.553  18.313 -24.499  0.00  0.00    -0.085 NA
ATOM     10  N   UNL d   1      32.313  18.014 -24.876  0.00  0.00    -0.019 N 
ENDBRANCH   2   7
TORSDOF 1
ENDMDL
