MODEL 1
REMARK VINA RESULT:      49.4      0.000      0.000
REMARK  5 active torsions:
REMARK  status: ('A' for Active; 'I' for Inactive)
REMARK    1  A    between atoms: C_6  and  S_1 
REMARK    2  A    between atoms: N_7  and  S_1 
REMARK    3  A    between atoms: C_15  and  N_7 
REMARK    4  A    between atoms: O_21  and  C_16 
REMARK    5  A    between atoms: C_22  and  O_21 
ROOT
ATOM      1  S   UNL d   1      13.827  14.092  -3.592  0.00  0.00     0.327 S 
ATOM      2  O   UNL d   1      14.266  14.781  -3.504  0.00  0.00    -0.186 OA
ATOM      3  O   UNL d   1      13.319  14.008  -4.232  0.00  0.00    -0.186 OA
ENDROOT
BRANCH   1   4
ATOM      4  C   UNL d   1      13.894  13.488  -3.041  0.00  0.00     0.118 A 
ATOM      5  C   UNL d   1      14.307  13.615  -2.344  0.00  0.00     0.035 A 
ATOM      6  C   UNL d   1      14.377  13.008  -1.785  0.00  0.00     0.105 A 
ATOM      7  N   UNL d   1      14.749  12.969  -1.050  0.00  0.00    -0.189 NA
ATOM      8  C   UNL d   1      14.027  12.269  -1.933  0.00  0.00     0.104 A 
ATOM      9  C   UNL d   1      14.632  12.206  -0.739  0.00  0.00     0.369 A 
ATOM     10  O   UNL d   1      14.910  11.929  -0.016  0.00  0.00    -0.242 OA
ATOM     11  N   UNL d   1      14.186  11.779  -1.288  0.00  0.00    -0.189 NA
ATOM     12  C   UNL d   1      13.611  12.145  -2.638  0.00  0.00     0.022 A 
ATOM     13  C   UNL d   1      13.547  12.756  -3.188  0.00  0.00     0.016 A 
ENDBRANCH   1   4
BRANCH   1  14
ATOM     14  N   UNL d   1      13.753  14.692  -4.148  0.00  0.00    -0.317 NA
BRANCH  14  15
ATOM     15  C   UNL d   1      13.677  15.304  -4.716  0.00  0.00     0.146 A 
ATOM     16  C   UNL d   1      12.929  15.471  -5.037  0.00  0.00     0.035 A 
ATOM     17  C   UNL d   1      12.857  16.076  -5.598  0.00  0.00     0.027 A 
ATOM     18  C   UNL d   1      13.525  16.506  -5.830  0.00  0.00     0.100 A 
ATOM     19  C   UNL d   1      14.260  16.332  -5.505  0.00  0.00     0.027 A 
ATOM     20  C   UNL d   1      14.333  15.730  -4.948  0.00  0.00     0.035 A 
BRANCH  18  21
ATOM     21  O   UNL d   1      13.456  17.110  -6.389  0.00  0.00    -0.305 OA
BRANCH  21  22
ATOM     22  C   UNL d   1      13.711  17.861  -6.215  0.00  0.00     0.123 C 
ATOM     23  C   UNL d   1      13.213  18.506  -6.343  0.00  0.00     0.029 C 
ENDBRANCH  21  22
ENDBRANCH  18  21
ENDBRANCH  14  15
ENDBRANCH   1  14
TORSDOF 5
ENDMDL
MODEL 2
REMARK VINA RESULT:      50.8      1.199      1.557
REMARK  5 active torsions:
REMARK  status: ('A' for Active; 'I' for Inactive)
REMARK    1  A    between atoms: C_6  and  S_1 
REMARK    2  A    between atoms: N_7  and  S_1 
REMARK    3  A    between atoms: C_15  and  N_7 
REMARK    4  A    between atoms: O_21  and  C_16 
REMARK    5  A    between atoms: C_22  and  O_21 
ROOT
ATOM      1  S   UNL d   1      13.503  14.912  -4.597  0.00  0.00     0.327 S 
ATOM      2  O   UNL d   1      13.704  14.971  -5.392  0.00  0.00    -0.186 OA
ATOM      3  O   UNL d   1      13.329  15.589  -4.166  0.00  0.00    -0.186 OA
ENDROOT
BRANCH   1   4
ATOM      4  C   UNL d   1      13.477  14.178  -4.233  0.00  0.00     0.118 A 
ATOM      5  C   UNL d   1      13.809  14.078  -3.490  0.00  0.00     0.035 A 
ATOM      6  C   UNL d   1      13.785  13.338  -3.119  0.00  0.00     0.105 A 
ATOM      7  N   UNL d   1      14.064  13.072  -2.390  0.00  0.00    -0.189 NA
ATOM      8  C   UNL d   1      13.422  12.696  -3.502  0.00  0.00     0.104 A 
ATOM      9  C   UNL d   1      13.876  12.264  -2.318  0.00  0.00     0.369 A 
ATOM     10  O   UNL d   1      14.053  11.780  -1.677  0.00  0.00    -0.242 OA
ATOM     11  N   UNL d   1      13.480  12.038  -3.007  0.00  0.00    -0.189 NA
ATOM     12  C   UNL d   1      13.087  12.801  -4.252  0.00  0.00     0.022 A 
ATOM     13  C   UNL d   1      13.117  13.542  -4.613  0.00  0.00     0.016 A 
ENDBRANCH   1   4
BRANCH   1  14
ATOM     14  N   UNL d   1      13.527  15.652  -4.953  0.00  0.00    -0.317 NA
BRANCH  14  15
ATOM     15  C   UNL d   1      13.553  16.407  -5.317  0.00  0.00     0.146 A 
ATOM     16  C   UNL d   1      13.000  16.592  -5.909  0.00  0.00     0.035 A 
ATOM     17  C   UNL d   1      13.027  17.338  -6.267  0.00  0.00     0.027 A 
ATOM     18  C   UNL d   1      13.599  17.888  -6.034  0.00  0.00     0.100 A 
ATOM     19  C   UNL d   1      14.141  17.693  -5.447  0.00  0.00     0.027 A 
ATOM     20  C   UNL d   1      14.115  16.951  -5.090  0.00  0.00     0.035 A 
BRANCH  18  21
ATOM     21  O   UNL d   1      13.630  18.633  -6.389  0.00  0.00    -0.305 OA
BRANCH  21  22
ATOM     22  C   UNL d   1      14.128  19.205  -6.100  0.00  0.00     0.123 C 
ATOM     23  C   UNL d   1      14.077  19.977  -6.384  0.00  0.00     0.029 C 
ENDBRANCH  21  22
ENDBRANCH  18  21
ENDBRANCH  14  15
ENDBRANCH   1  14
TORSDOF 5
ENDMDL
