MODEL 1
REMARK VINA RESULT:      -6.2      0.000      0.000
REMARK  2 active torsions:
REMARK  status: ('A' for Active; 'I' for Inactive)
REMARK    1  A    between atoms: C_4  and  C_1 
REMARK    2  A    between atoms: N_6  and  C_5 
ROOT
ATOM      1  C   UNL d   1     -48.519  14.312  22.895  0.00  0.00     0.024 A 
ATOM      2  C   UNL d   1     -47.083  13.498  22.840  0.00  0.00     0.064 A 
ATOM      3  C   UNL d   1     -48.500  13.491  23.004  0.00  0.00     0.004 A 
ATOM      4  C   UNL d   1     -47.818  14.724  22.757  0.00  0.00     0.004 A 
ATOM      5  C   UNL d   1     -47.785  13.086  22.977  0.00  0.00     0.018 A 
ATOM      6  C   UNL d   1     -47.097  14.316  22.730  0.00  0.00     0.018 A 
ENDROOT
BRANCH   1   7
ATOM      7  C   UNL d   1     -49.232  14.720  22.921  0.00  0.00     0.111 A 
ATOM      8  N   UNL d   1     -49.443  15.321  23.433  0.00  0.00    -0.237 NA
ATOM      9  C   UNL d   1     -50.213  15.546  23.237  0.00  0.00     0.106 A 
ATOM     10  C   UNL d   1     -50.463  15.096  22.625  0.00  0.00     0.058 A 
ATOM     11  S   UNL d   1     -49.861  14.585  22.427  0.00  0.00    -0.066 SA
ENDBRANCH   1   7
BRANCH   2  12
ATOM     12  N   UNL d   1     -46.378  13.069  22.817  0.00  0.00    -0.301 N 
ATOM     13  C   UNL d   1     -46.304  12.403  23.290  0.00  0.00     0.100 C 
ATOM     14  C   UNL d   1     -45.766  13.306  22.329  0.00  0.00     0.100 C 
ENDBRANCH   2  12
TORSDOF 2
ENDMDL
MODEL 2
REMARK VINA RESULT:      -6.2      1.060      3.395
REMARK  2 active torsions:
REMARK  status: ('A' for Active; 'I' for Inactive)
REMARK    1  A    between atoms: C_4  and  C_1 
REMARK    2  A    between atoms: N_6  and  C_5 
ROOT
ATOM      1  C   UNL d   1     -47.977  14.166  22.842  0.00  0.00     0.024 A 
ATOM      2  C   UNL d   1     -49.483  14.840  22.924  0.00  0.00     0.064 A 
ATOM      3  C   UNL d   1     -48.612  13.735  23.156  0.00  0.00     0.004 A 
ATOM      4  C   UNL d   1     -48.099  14.935  22.570  0.00  0.00     0.004 A 
ATOM      5  C   UNL d   1     -49.361  14.070  23.197  0.00  0.00     0.018 A 
ATOM      6  C   UNL d   1     -48.855  15.274  22.611  0.00  0.00     0.018 A 
ENDROOT
BRANCH   1   7
ATOM      7  C   UNL d   1     -47.228  13.834  22.801  0.00  0.00     0.111 A 
ATOM      8  N   UNL d   1     -46.521  14.215  22.643  0.00  0.00    -0.237 NA
ATOM      9  C   UNL d   1     -45.929  13.641  22.662  0.00  0.00     0.106 A 
ATOM     10  C   UNL d   1     -46.261  12.934  22.827  0.00  0.00     0.058 A 
ATOM     11  S   UNL d   1     -47.063  13.047  22.913  0.00  0.00    -0.066 SA
ENDBRANCH   1   7
BRANCH   2  12
ATOM     12  N   UNL d   1     -50.245  15.154  22.976  0.00  0.00    -0.301 N 
ATOM     13  C   UNL d   1     -50.408  15.707  23.560  0.00  0.00     0.100 C 
ATOM     14  C   UNL d   1     -50.826  14.916  22.452  0.00  0.00     0.100 C 
ENDBRANCH   2  12
TORSDOF 2
ENDMDL
MODEL 3
REMARK VINA RESULT:      -6.1      1.765      2.255
REMARK  2 active torsions:
REMARK  status: ('A' for Active; 'I' for Inactive)
REMARK    1  A    between atoms: C_4  and  C_1 
REMARK    2  A    between atoms: N_6  and  C_5 
ROOT
ATOM      1  C   UNL d   1     -48.575  12.548  23.220  0.00  0.00     0.024 A 
ATOM      2  C   UNL d   1     -47.089  13.179  22.870  0.00  0.00     0.064 A 
ATOM      3  C   UNL d   1     -48.499  13.150  22.656  0.00  0.00     0.004 A 
ATOM      4  C   UNL d   1     -47.905  12.263  23.607  0.00  0.00     0.004 A 
ATOM      5  C   UNL d   1     -47.759  13.464  22.482  0.00  0.00     0.018 A 
ATOM      6  C   UNL d   1     -47.159  12.579  23.432  0.00  0.00     0.018 A 
ENDROOT
BRANCH   1   7
ATOM      7  C   UNL d   1     -49.313  12.233  23.396  0.00  0.00     0.111 A 
ATOM      8  N   UNL d   1     -49.496  11.451  23.551  0.00  0.00    -0.237 NA
ATOM      9  C   UNL d   1     -50.308  11.419  23.695  0.00  0.00     0.106 A 
ATOM     10  C   UNL d   1     -50.610  12.156  23.630  0.00  0.00     0.058 A 
ATOM     11  S   UNL d   1     -50.000  12.662  23.445  0.00  0.00    -0.066 SA
ENDBRANCH   1   7
BRANCH   2  12
ATOM     12  N   UNL d   1     -46.358  13.510  22.677  0.00  0.00    -0.301 N 
ATOM     13  C   UNL d   1     -46.176  14.259  22.955  0.00  0.00     0.100 C 
ATOM     14  C   UNL d   1     -45.825  13.095  22.215  0.00  0.00     0.100 C 
ENDBRANCH   2  12
TORSDOF 2
ENDMDL
