MODEL 1
REMARK VINA RESULT:     -10.1      0.000      0.000
REMARK  5 active torsions:
REMARK  status: ('A' for Active; 'I' for Inactive)
REMARK    1  A    between atoms: C_10  and  C_3 
REMARK    2  A    between atoms: S_11  and  C_4 
REMARK    3  A    between atoms: C_17  and  S_11 
REMARK    4  A    between atoms: C_13  and  C_17 
REMARK       I    between atoms: N_14  and  C_13 
REMARK    5  A    between atoms: C_15  and  N_14 
ROOT
ATOM      1  C   UNL d   1      53.659  32.809  54.049  0.00  0.00     0.150 A 
ATOM      2  N   UNL d   1      52.943  32.991  53.671  0.00  0.00    -0.285 N 
ATOM      3  C   UNL d   1      54.067  33.392  54.440  0.00  0.00     0.056 A 
ATOM      4  C   UNL d   1      52.660  33.750  53.697  0.00  0.00     0.096 A 
ATOM      5  N   UNL d   1      53.953  32.043  54.028  0.00  0.00    -0.227 NA
ATOM      6  C   UNL d   1      53.774  34.163  54.462  0.00  0.00     0.006 A 
ATOM      7  C   UNL d   1      53.069  34.333  54.088  0.00  0.00     0.025 A 
ATOM      8  C   UNL d   1      52.828  31.633  53.257  0.00  0.00     0.084 A 
ATOM      9  C   UNL d   1      53.544  31.451  53.635  0.00  0.00     0.099 A 
ATOM     10  C   UNL d   1      54.182  34.738  54.851  0.00  0.00     0.000 C 
ATOM     11  C   UNL d   1      52.420  31.049  52.865  0.00  0.00     0.019 A 
ATOM     12  C   UNL d   1      53.827  30.692  53.609  0.00  0.00     0.021 A 
ATOM     13  C   UNL d   1      52.714  30.287  52.846  0.00  0.00     0.002 A 
ATOM     14  C   UNL d   1      53.418  30.108  53.218  0.00  0.00     0.002 A 
ENDROOT
BRANCH   4  15
ATOM     15  S   UNL d   1      51.930  33.935  53.311  0.00  0.00    -0.064 SA
BRANCH  15  16
ATOM     16  C   UNL d   1      51.140  34.243  53.393  0.00  0.00     0.099 C 
BRANCH  16  17
ATOM     17  C   UNL d   1      50.665  34.373  52.708  0.00  0.00     0.286 C 
ATOM     18  N   UNL d   1      49.818  34.399  52.778  0.00  0.00    -0.208 NA
ATOM     19  O   UNL d   1      51.029  34.478  51.944  0.00  0.00    -0.265 OA
BRANCH  18  20
ATOM     20  C   UNL d   1      49.333  34.531  52.083  0.00  0.00     0.085 A 
ATOM     21  C   UNL d   1      48.665  35.037  52.133  0.00  0.00     0.019 A 
ATOM     22  C   UNL d   1      48.185  35.168  51.447  0.00  0.00     0.002 A 
ATOM     23  C   UNL d   1      47.510  35.678  51.493  0.00  0.00     0.000 C 
ATOM     24  C   UNL d   1      48.373  34.791  50.703  0.00  0.00     0.000 A 
ATOM     25  C   UNL d   1      49.056  34.280  50.672  0.00  0.00     0.002 A 
ATOM     26  C   UNL d   1      49.535  34.150  51.359  0.00  0.00     0.019 A 
ENDBRANCH  18  20
ENDBRANCH  16  17
ENDBRANCH  15  16
ENDBRANCH   4  15
BRANCH   3  27
ATOM     27  C   UNL d   1      54.772  33.222  54.814  0.00  0.00     0.125 C 
ATOM     28  N   UNL d   1      54.815  33.379  55.614  0.00  0.00    -0.146 N 
ENDBRANCH   3  27
TORSDOF 5
ENDMDL
MODEL 2
REMARK VINA RESULT:      -9.5      0.827      2.568
REMARK  5 active torsions:
REMARK  status: ('A' for Active; 'I' for Inactive)
REMARK    1  A    between atoms: C_10  and  C_3 
REMARK    2  A    between atoms: S_11  and  C_4 
REMARK    3  A    between atoms: C_17  and  S_11 
REMARK    4  A    between atoms: C_13  and  C_17 
REMARK       I    between atoms: N_14  and  C_13 
REMARK    5  A    between atoms: C_15  and  N_14 
ROOT
ATOM      1  C   UNL d   1      53.468  32.060  53.776  0.00  0.00     0.150 A 
ATOM      2  N   UNL d   1      52.899  32.644  53.628  0.00  0.00    -0.285 N 
ATOM      3  C   UNL d   1      53.378  31.319  53.457  0.00  0.00     0.056 A 
ATOM      4  C   UNL d   1      52.258  32.468  53.164  0.00  0.00     0.096 A 
ATOM      5  N   UNL d   1      54.121  32.230  54.244  0.00  0.00    -0.227 NA
ATOM      6  C   UNL d   1      52.722  31.146  52.986  0.00  0.00     0.006 A 
ATOM      7  C   UNL d   1      52.167  31.726  52.845  0.00  0.00     0.025 A 
ATOM      8  C   UNL d   1      53.647  33.561  54.420  0.00  0.00     0.084 A 
ATOM      9  C   UNL d   1      54.216  32.977  54.568  0.00  0.00     0.099 A 
ATOM     10  C   UNL d   1      52.636  30.409  52.672  0.00  0.00     0.000 C 
ATOM     11  C   UNL d   1      53.738  34.303  54.740  0.00  0.00     0.019 A 
ATOM     12  C   UNL d   1      54.858  33.154  55.032  0.00  0.00     0.021 A 
ATOM     13  C   UNL d   1      54.389  34.471  55.205  0.00  0.00     0.002 A 
ATOM     14  C   UNL d   1      54.949  33.896  55.351  0.00  0.00     0.002 A 
ENDROOT
BRANCH   4  15
ATOM     15  S   UNL d   1      51.677  33.064  53.013  0.00  0.00    -0.064 SA
BRANCH  15  16
ATOM     16  C   UNL d   1      51.319  33.579  52.436  0.00  0.00     0.099 C 
BRANCH  16  17
ATOM     17  C   UNL d   1      50.583  33.954  52.605  0.00  0.00     0.286 C 
ATOM     18  N   UNL d   1      50.230  34.474  52.032  0.00  0.00    -0.208 NA
ATOM     19  O   UNL d   1      50.188  33.817  53.349  0.00  0.00    -0.265 OA
BRANCH  18  20
ATOM     20  C   UNL d   1      49.481  34.857  52.202  0.00  0.00     0.085 A 
ATOM     21  C   UNL d   1      48.869  34.844  51.627  0.00  0.00     0.019 A 
ATOM     22  C   UNL d   1      48.130  35.222  51.794  0.00  0.00     0.002 A 
ATOM     23  C   UNL d   1      47.509  35.212  51.217  0.00  0.00     0.000 C 
ATOM     24  C   UNL d   1      47.998  35.616  52.541  0.00  0.00     0.000 A 
ATOM     25  C   UNL d   1      48.631  35.618  53.112  0.00  0.00     0.002 A 
ATOM     26  C   UNL d   1      49.371  35.240  52.944  0.00  0.00     0.019 A 
ENDBRANCH  18  20
ENDBRANCH  16  17
ENDBRANCH  15  16
ENDBRANCH   4  15
BRANCH   3  27
ATOM     27  C   UNL d   1      53.933  30.738  53.598  0.00  0.00     0.125 C 
ATOM     28  N   UNL d   1      53.662  30.028  53.896  0.00  0.00    -0.146 N 
ENDBRANCH   3  27
TORSDOF 5
ENDMDL
MODEL 3
REMARK VINA RESULT:      -7.7      0.752      1.016
REMARK  5 active torsions:
REMARK  status: ('A' for Active; 'I' for Inactive)
REMARK    1  A    between atoms: C_10  and  C_3 
REMARK    2  A    between atoms: S_11  and  C_4 
REMARK    3  A    between atoms: C_17  and  S_11 
REMARK    4  A    between atoms: C_13  and  C_17 
REMARK       I    between atoms: N_14  and  C_13 
REMARK    5  A    between atoms: C_15  and  N_14 
ROOT
ATOM      1  C   UNL d   1      53.231  32.915  53.886  0.00  0.00     0.150 A 
ATOM      2  N   UNL d   1      52.617  33.012  53.337  0.00  0.00    -0.285 N 
ATOM      3  C   UNL d   1      53.513  33.559  54.293  0.00  0.00     0.056 A 
ATOM      4  C   UNL d   1      52.304  33.750  53.214  0.00  0.00     0.096 A 
ATOM      5  N   UNL d   1      53.553  32.171  54.017  0.00  0.00    -0.227 NA
ATOM      6  C   UNL d   1      53.190  34.307  54.163  0.00  0.00     0.006 A 
ATOM      7  C   UNL d   1      52.586  34.394  53.621  0.00  0.00     0.025 A 
ATOM      8  C   UNL d   1      52.658  31.616  53.059  0.00  0.00     0.084 A 
ATOM      9  C   UNL d   1      53.272  31.519  53.607  0.00  0.00     0.099 A 
ATOM     10  C   UNL d   1      53.472  34.943  54.569  0.00  0.00     0.000 C 
ATOM     11  C   UNL d   1      52.376  30.971  52.651  0.00  0.00     0.019 A 
ATOM     12  C   UNL d   1      53.584  30.781  53.730  0.00  0.00     0.021 A 
ATOM     13  C   UNL d   1      52.698  30.231  52.783  0.00  0.00     0.002 A 
ATOM     14  C   UNL d   1      53.303  30.136  53.323  0.00  0.00     0.002 A 
ENDROOT
BRANCH   4  15
ATOM     15  S   UNL d   1      51.678  33.848  52.654  0.00  0.00    -0.064 SA
BRANCH  15  16
ATOM     16  C   UNL d   1      50.877  33.652  52.441  0.00  0.00     0.099 C 
BRANCH  16  17
ATOM     17  C   UNL d   1      50.302  34.264  52.353  0.00  0.00     0.286 C 
ATOM     18  N   UNL d   1      49.513  34.151  52.650  0.00  0.00    -0.208 NA
ATOM     19  O   UNL d   1      50.507  34.997  51.969  0.00  0.00    -0.265 OA
BRANCH  18  20
ATOM     20  C   UNL d   1      48.927  34.771  52.562  0.00  0.00     0.085 A 
ATOM     21  C   UNL d   1      48.833  35.342  53.170  0.00  0.00     0.019 A 
ATOM     22  C   UNL d   1      48.255  35.955  53.084  0.00  0.00     0.002 A 
ATOM     23  C   UNL d   1      48.156  36.533  53.696  0.00  0.00     0.000 C 
ATOM     24  C   UNL d   1      47.765  36.000  52.385  0.00  0.00     0.000 A 
ATOM     25  C   UNL d   1      47.876  35.411  51.777  0.00  0.00     0.002 A 
ATOM     26  C   UNL d   1      48.454  34.798  51.864  0.00  0.00     0.019 A 
ENDBRANCH  18  20
ENDBRANCH  16  17
ENDBRANCH  15  16
ENDBRANCH   4  15
BRANCH   3  27
ATOM     27  C   UNL d   1      54.117  33.472  54.835  0.00  0.00     0.125 C 
ATOM     28  N   UNL d   1      54.678  34.063  54.863  0.00  0.00    -0.146 N 
ENDBRANCH   3  27
TORSDOF 5
ENDMDL
MODEL 4
REMARK VINA RESULT:      -7.2      1.907      5.256
REMARK  5 active torsions:
REMARK  status: ('A' for Active; 'I' for Inactive)
REMARK    1  A    between atoms: C_10  and  C_3 
REMARK    2  A    between atoms: S_11  and  C_4 
REMARK    3  A    between atoms: C_17  and  S_11 
REMARK    4  A    between atoms: C_13  and  C_17 
REMARK       I    between atoms: N_14  and  C_13 
REMARK    5  A    between atoms: C_15  and  N_14 
ROOT
ATOM      1  C   UNL d   1      52.600  33.923  53.603  0.00  0.00     0.150 A 
ATOM      2  N   UNL d   1      52.888  33.155  53.482  0.00  0.00    -0.285 N 
ATOM      3  C   UNL d   1      51.946  34.177  53.193  0.00  0.00     0.056 A 
ATOM      4  C   UNL d   1      52.514  32.666  52.955  0.00  0.00     0.096 A 
ATOM      5  N   UNL d   1      52.973  34.425  54.135  0.00  0.00    -0.227 NA
ATOM      6  C   UNL d   1      51.569  33.675  52.658  0.00  0.00     0.006 A 
ATOM      7  C   UNL d   1      51.860  32.921  52.545  0.00  0.00     0.025 A 
ATOM      8  C   UNL d   1      53.922  33.405  54.430  0.00  0.00     0.084 A 
ATOM      9  C   UNL d   1      53.633  34.172  54.551  0.00  0.00     0.099 A 
ATOM     10  C   UNL d   1      50.922  33.930  52.253  0.00  0.00     0.000 C 
ATOM     11  C   UNL d   1      54.576  33.151  54.841  0.00  0.00     0.019 A 
ATOM     12  C   UNL d   1      54.008  34.661  55.078  0.00  0.00     0.021 A 
ATOM     13  C   UNL d   1      54.946  33.652  55.370  0.00  0.00     0.002 A 
ATOM     14  C   UNL d   1      54.662  34.407  55.489  0.00  0.00     0.002 A 
ENDROOT
BRANCH   4  15
ATOM     15  S   UNL d   1      52.808  31.883  52.832  0.00  0.00    -0.064 SA
BRANCH  15  16
ATOM     16  C   UNL d   1      52.617  31.061  52.715  0.00  0.00     0.099 C 
BRANCH  16  17
ATOM     17  C   UNL d   1      52.999  30.469  53.179  0.00  0.00     0.286 C 
ATOM     18  N   UNL d   1      52.544  29.990  53.714  0.00  0.00    -0.208 NA
ATOM     19  O   UNL d   1      53.841  30.347  53.115  0.00  0.00    -0.265 OA
BRANCH  18  20
ATOM     20  C   UNL d   1      52.931  29.388  54.187  0.00  0.00     0.085 A 
ATOM     21  C   UNL d   1      52.988  29.486  55.019  0.00  0.00     0.019 A 
ATOM     22  C   UNL d   1      53.369  28.891  55.486  0.00  0.00     0.002 A 
ATOM     23  C   UNL d   1      53.429  28.986  56.326  0.00  0.00     0.000 C 
ATOM     24  C   UNL d   1      53.698  28.192  55.121  0.00  0.00     0.000 A 
ATOM     25  C   UNL d   1      53.630  28.109  54.275  0.00  0.00     0.002 A 
ATOM     26  C   UNL d   1      53.248  28.705  53.808  0.00  0.00     0.019 A 
ENDBRANCH  18  20
ENDBRANCH  16  17
ENDBRANCH  15  16
ENDBRANCH   4  15
BRANCH   3  27
ATOM     27  C   UNL d   1      51.656  34.931  53.306  0.00  0.00     0.125 C 
ATOM     28  N   UNL d   1      50.861  35.001  53.479  0.00  0.00    -0.146 N 
ENDBRANCH   3  27
TORSDOF 5
ENDMDL
MODEL 5
REMARK VINA RESULT:      -7.1      9.678     11.069
REMARK  5 active torsions:
REMARK  status: ('A' for Active; 'I' for Inactive)
REMARK    1  A    between atoms: C_10  and  C_3 
REMARK    2  A    between atoms: S_11  and  C_4 
REMARK    3  A    between atoms: C_17  and  S_11 
REMARK    4  A    between atoms: C_13  and  C_17 
REMARK       I    between atoms: N_14  and  C_13 
REMARK    5  A    between atoms: C_15  and  N_14 
ROOT
ATOM      1  C   UNL d   1      44.564  30.712  58.178  0.00  0.00     0.150 A 
ATOM      2  N   UNL d   1      44.720  29.897  58.183  0.00  0.00    -0.285 N 
ATOM      3  C   UNL d   1      44.469  31.099  57.470  0.00  0.00     0.056 A 
ATOM      4  C   UNL d   1      44.776  29.497  57.481  0.00  0.00     0.096 A 
ATOM      5  N   UNL d   1      44.506  31.125  58.884  0.00  0.00    -0.227 NA
ATOM      6  C   UNL d   1      44.527  30.685  56.758  0.00  0.00     0.006 A 
ATOM      7  C   UNL d   1      44.681  29.884  56.773  0.00  0.00     0.025 A 
ATOM      8  C   UNL d   1      44.757  29.924  59.607  0.00  0.00     0.084 A 
ATOM      9  C   UNL d   1      44.601  30.738  59.601  0.00  0.00     0.099 A 
ATOM     10  C   UNL d   1      44.432  31.072  56.058  0.00  0.00     0.000 C 
ATOM     11  C   UNL d   1      44.852  29.537  60.316  0.00  0.00     0.019 A 
ATOM     12  C   UNL d   1      44.545  31.139  60.304  0.00  0.00     0.021 A 
ATOM     13  C   UNL d   1      44.794  29.950  61.018  0.00  0.00     0.002 A 
ATOM     14  C   UNL d   1      44.640  30.752  61.013  0.00  0.00     0.002 A 
ENDROOT
BRANCH   4  15
ATOM     15  S   UNL d   1      44.936  28.666  57.487  0.00  0.00    -0.064 SA
BRANCH  15  16
ATOM     16  C   UNL d   1      45.040  27.958  57.025  0.00  0.00     0.099 C 
BRANCH  16  17
ATOM     17  C   UNL d   1      45.051  27.204  57.404  0.00  0.00     0.286 C 
ATOM     18  N   UNL d   1      44.388  26.678  57.321  0.00  0.00    -0.208 NA
ATOM     19  O   UNL d   1      45.722  26.966  57.872  0.00  0.00    -0.265 OA
BRANCH  18  20
ATOM     20  C   UNL d   1      44.397  25.911  57.705  0.00  0.00     0.085 A 
ATOM     21  C   UNL d   1      44.482  25.216  57.242  0.00  0.00     0.019 A 
ATOM     22  C   UNL d   1      44.490  24.458  57.622  0.00  0.00     0.002 A 
ATOM     23  C   UNL d   1      44.576  23.754  57.159  0.00  0.00     0.000 C 
ATOM     24  C   UNL d   1      44.414  24.393  58.470  0.00  0.00     0.000 A 
ATOM     25  C   UNL d   1      44.329  25.110  58.924  0.00  0.00     0.002 A 
ATOM     26  C   UNL d   1      44.320  25.868  58.543  0.00  0.00     0.019 A 
ENDBRANCH  18  20
ENDBRANCH  16  17
ENDBRANCH  15  16
ENDBRANCH   4  15
BRANCH   3  27
ATOM     27  C   UNL d   1      44.315  31.900  57.455  0.00  0.00     0.125 C 
ATOM     28  N   UNL d   1      44.817  32.367  57.013  0.00  0.00    -0.146 N 
ENDBRANCH   3  27
TORSDOF 5
ENDMDL
