MODEL 1
REMARK VINA RESULT:       7.2      0.000      0.000
REMARK  4 active torsions:
REMARK  status: ('A' for Active; 'I' for Inactive)
REMARK    1  A    between atoms: C_5  and  C_1 
REMARK    2  A    between atoms: C_11  and  C_2 
REMARK       I    between atoms: C_12  and  N_3 
REMARK    3  A    between atoms: C_15  and  N_7 
REMARK    4  A    between atoms: C_14  and  C_9 
ROOT
ATOM      1  C   UNL d   1      58.039  -1.125  30.133  0.00  0.00     0.057 A 
ATOM      2  C   UNL d   1      58.344  -1.767  29.689  0.00  0.00     0.110 A 
ATOM      3  N   UNL d   1      59.063  -1.510  29.356  0.00  0.00    -0.165 NA
ATOM      4  N   UNL d   1      59.179  -0.718  29.604  0.00  0.00    -0.228 N 
ATOM      5  C   UNL d   1      58.550  -0.505  30.072  0.00  0.00     0.103 A 
ENDROOT
BRANCH   1   6
ATOM      6  C   UNL d   1      57.476  -0.785  30.611  0.00  0.00     0.091 A 
ATOM      7  N   UNL d   1      56.916  -0.211  30.366  0.00  0.00    -0.195 N 
ATOM      8  N   UNL d   1      56.442  -0.011  31.030  0.00  0.00    -0.163 NA
ATOM      9  C   UNL d   1      56.823   0.115  29.625  0.00  0.00     0.281 C 
ATOM     10  C   UNL d   1      56.710  -0.455  31.662  0.00  0.00     0.103 A 
ATOM     11  C   UNL d   1      57.339  -0.931  31.422  0.00  0.00     0.040 A 
ATOM     12  O   UNL d   1      57.339  -0.145  29.028  0.00  0.00    -0.265 OA
ATOM     13  C   UNL d   1      56.241   0.682  29.462  0.00  0.00     0.068 C 
BRANCH  10  14
ATOM     14  C   UNL d   1      56.415  -0.451  32.441  0.00  0.00     0.019 A 
ATOM     15  C   UNL d   1      56.586   0.193  32.939  0.00  0.00     0.002 A 
ATOM     16  C   UNL d   1      56.312   0.222  33.699  0.00  0.00     0.000 A 
ATOM     17  C   UNL d   1      55.854  -0.394  33.994  0.00  0.00     0.000 A 
ATOM     18  C   UNL d   1      55.683  -1.035  33.502  0.00  0.00     0.000 A 
ATOM     19  C   UNL d   1      55.559  -0.391  34.773  0.00  0.00     0.000 C 
ATOM     20  C   UNL d   1      55.957  -1.068  32.736  0.00  0.00     0.002 A 
ENDBRANCH  10  14
ENDBRANCH   1   6
BRANCH   2  21
ATOM     21  C   UNL d   1      58.443  -2.506  29.331  0.00  0.00     0.049 A 
ATOM     22  S   UNL d   1      58.920  -3.110  29.631  0.00  0.00    -0.085 SA
ATOM     23  C   UNL d   1      58.846  -3.748  29.086  0.00  0.00     0.035 A 
ATOM     24  C   UNL d   1      58.338  -3.523  28.480  0.00  0.00     0.007 A 
ATOM     25  C   UNL d   1      58.087  -2.742  28.640  0.00  0.00     0.009 A 
ENDBRANCH   2  21
BRANCH   4  26
ATOM     26  C   UNL d   1      59.842  -0.250  29.390  0.00  0.00     0.083 A 
ATOM     27  C   UNL d   1      60.506  -0.225  29.871  0.00  0.00     0.019 A 
ATOM     28  C   UNL d   1      61.133   0.242  29.629  0.00  0.00     0.002 A 
ATOM     29  C   UNL d   1      61.128   0.682  28.934  0.00  0.00     0.000 A 
ATOM     30  C   UNL d   1      60.442   0.644  28.455  0.00  0.00     0.002 A 
ATOM     31  C   UNL d   1      59.806   0.189  28.671  0.00  0.00     0.019 A 
ENDBRANCH   4  26
TORSDOF 4
ENDMDL
