MODEL 1
REMARK VINA RESULT:      43.6      0.000      0.000
REMARK  6 active torsions:
REMARK  status: ('A' for Active; 'I' for Inactive)
REMARK    1  A    between atoms: S_6  and  C_2 
REMARK    2  A    between atoms: C_9  and  S_6 
REMARK    3  A    between atoms: C_7  and  C_9 
REMARK    4  A    between atoms: C_8  and  C_7 
REMARK    5  A    between atoms: O_12  and  C_15 
REMARK    6  A    between atoms: C_18  and  O_12 
ROOT
ATOM      1  C   UNL d   1     -55.350-102.005 -40.503  0.00  0.00     0.040 A 
ATOM      2  C   UNL d   1     -56.091-102.271 -40.271  0.00  0.00     0.005 A 
ATOM      3  C   UNL d   1     -54.712-102.029 -39.957  0.00  0.00     0.005 A 
ATOM      4  C   UNL d   1     -55.588-102.585 -38.969  0.00  0.00     0.100 A 
ATOM      5  C   UNL d   1     -56.214-102.560 -39.511  0.00  0.00     0.025 A 
ATOM      6  C   UNL d   1     -54.840-102.318 -39.198  0.00  0.00     0.025 A 
ENDROOT
BRANCH   1   7
ATOM      7  C   UNL d   1     -55.227-101.718 -41.259  0.00  0.00     0.202 C 
ATOM      8  O   UNL d   1     -54.723-101.069 -41.371  0.00  0.00    -0.286 OA
BRANCH   7   9
ATOM      9  C   UNL d   1     -55.601-102.072 -41.903  0.00  0.00     0.080 C 
BRANCH   9  10
ATOM     10  S   UNL d   1     -55.196-102.144 -42.625  0.00  0.00    -0.043 SA
BRANCH  10  11
ATOM     11  C   UNL d   1     -55.319-101.588 -43.227  0.00  0.00     0.233 A 
ATOM     12  N   UNL d   1     -54.744-101.267 -43.718  0.00  0.00    -0.029 NA
ATOM     13  C   UNL d   1     -55.108-100.739 -44.235  0.00  0.00     0.788 A 
ATOM     14  N   UNL d   1     -55.908-100.735 -44.061  0.00  0.00     0.050 NA
ATOM     15  N   UNL d   1     -54.726-100.298 -44.819  0.00  0.00     0.064 N 
ATOM     16  N   UNL d   1     -56.048-101.254 -43.442  0.00  0.00    -0.105 NA
ENDBRANCH  10  11
ENDBRANCH   9  10
ENDBRANCH   7   9
ENDBRANCH   1   7
BRANCH   4  17
ATOM     17  O   UNL d   1     -55.704-102.872 -38.207  0.00  0.00    -0.307 OA
BRANCH  17  18
ATOM     18  C   UNL d   1     -55.434-102.437 -37.557  0.00  0.00     0.100 A 
ATOM     19  C   UNL d   1     -55.252-101.645 -37.637  0.00  0.00     0.025 A 
ATOM     20  C   UNL d   1     -54.985-101.217 -36.994  0.00  0.00     0.002 A 
ATOM     21  C   UNL d   1     -54.898-101.584 -36.257  0.00  0.00     0.000 A 
ATOM     22  C   UNL d   1     -55.082-102.386 -36.173  0.00  0.00     0.002 A 
ATOM     23  C   UNL d   1     -55.351-102.817 -36.823  0.00  0.00     0.025 A 
ENDBRANCH  17  18
ENDBRANCH   4  17
TORSDOF 6
ENDMDL
MODEL 2
REMARK VINA RESULT:      44.5      2.746      5.795
REMARK  6 active torsions:
REMARK  status: ('A' for Active; 'I' for Inactive)
REMARK    1  A    between atoms: S_6  and  C_2 
REMARK    2  A    between atoms: C_9  and  S_6 
REMARK    3  A    between atoms: C_7  and  C_9 
REMARK    4  A    between atoms: C_8  and  C_7 
REMARK    5  A    between atoms: O_12  and  C_15 
REMARK    6  A    between atoms: C_18  and  O_12 
ROOT
ATOM      1  C   UNL d   1     -55.254-101.128 -43.758  0.00  0.00     0.040 A 
ATOM      2  C   UNL d   1     -55.898-101.073 -44.263  0.00  0.00     0.005 A 
ATOM      3  C   UNL d   1     -54.943-100.431 -43.407  0.00  0.00     0.005 A 
ATOM      4  C   UNL d   1     -55.938 -99.654 -44.084  0.00  0.00     0.100 A 
ATOM      5  C   UNL d   1     -56.241-100.344 -44.428  0.00  0.00     0.025 A 
ATOM      6  C   UNL d   1     -55.289 -99.704 -43.574  0.00  0.00     0.025 A 
ENDROOT
BRANCH   1   7
ATOM      7  C   UNL d   1     -54.912-101.852 -43.593  0.00  0.00     0.202 C 
ATOM      8  O   UNL d   1     -54.742-102.374 -44.215  0.00  0.00    -0.286 OA
BRANCH   7   9
ATOM      9  C   UNL d   1     -54.739-102.062 -42.815  0.00  0.00     0.080 C 
BRANCH   9  10
ATOM     10  S   UNL d   1     -55.252-102.567 -42.400  0.00  0.00    -0.043 SA
BRANCH  10  11
ATOM     11  C   UNL d   1     -55.360-102.469 -41.585  0.00  0.00     0.233 A 
ATOM     12  N   UNL d   1     -54.774-102.496 -41.009  0.00  0.00    -0.029 NA
ATOM     13  C   UNL d   1     -55.124-102.372 -40.274  0.00  0.00     0.788 A 
ATOM     14  N   UNL d   1     -55.926-102.267 -40.398  0.00  0.00     0.050 NA
ATOM     15  N   UNL d   1     -54.728-102.356 -39.551  0.00  0.00     0.064 N 
ATOM     16  N   UNL d   1     -56.082-102.326 -41.200  0.00  0.00    -0.105 NA
ENDBRANCH  10  11
ENDBRANCH   9  10
ENDBRANCH   7   9
ENDBRANCH   1   7
BRANCH   4  17
ATOM     17  O   UNL d   1     -56.277 -98.921 -44.245  0.00  0.00    -0.307 OA
BRANCH  17  18
ATOM     18  C   UNL d   1     -57.065 -98.877 -44.492  0.00  0.00     0.100 A 
ATOM     19  C   UNL d   1     -57.667 -98.809 -43.944  0.00  0.00     0.025 A 
ATOM     20  C   UNL d   1     -58.444 -98.765 -44.190  0.00  0.00     0.002 A 
ATOM     21  C   UNL d   1     -58.628 -98.789 -44.998  0.00  0.00     0.000 A 
ATOM     22  C   UNL d   1     -58.020 -98.857 -45.555  0.00  0.00     0.002 A 
ATOM     23  C   UNL d   1     -57.235 -98.901 -45.304  0.00  0.00     0.025 A 
ENDBRANCH  17  18
ENDBRANCH   4  17
TORSDOF 6
ENDMDL
