MODEL 1
REMARK VINA RESULT:      -3.0      0.000      0.000
REMARK  6 active torsions:
REMARK  status: ('A' for Active; 'I' for Inactive)
REMARK    1  A    between atoms: C_4  and  S_1 
REMARK    2  A    between atoms: C_5  and  S_1 
REMARK    3  A    between atoms: C_2  and  N_7 
REMARK    4  A    between atoms: N_3  and  C_2 
REMARK    5  A    between atoms: C_17  and  N_6 
REMARK    6  A    between atoms: N_7  and  C_12 
ROOT
ATOM      1  C   UNL d   1      57.338  -0.357  31.348  0.00  0.00     0.206 C 
ATOM      2  S   UNL d   1      57.174  -1.035  30.912  0.00  0.00    -0.038 SA
ENDROOT
BRANCH   1   3
ATOM      3  N   UNL d   1      57.949   0.149  31.108  0.00  0.00    -0.218 NA
BRANCH   3   4
ATOM      4  C   UNL d   1      58.156   0.202  30.311  0.00  0.00     0.085 A 
ATOM      5  C   UNL d   1      58.860  -0.140  30.050  0.00  0.00     0.031 A 
ATOM      6  C   UNL d   1      59.064  -0.086  29.255  0.00  0.00     0.094 A 
ATOM      7  C   UNL d   1      58.564   0.311  28.723  0.00  0.00     0.012 A 
ATOM      8  C   UNL d   1      57.862   0.650  28.993  0.00  0.00     0.002 A 
ATOM      9  C   UNL d   1      57.662   0.592  29.792  0.00  0.00     0.019 A 
BRANCH   6  10
ATOM     10  S   UNL d   1      59.764  -0.424  28.989  0.00  0.00     0.262 S 
ATOM     11  O   UNL d   1      60.129   0.318  29.022  0.00  0.00    -0.213 OA
ATOM     12  O   UNL d   1      59.396  -1.159  28.958  0.00  0.00    -0.213 OA
BRANCH  10  13
ATOM     13  C   UNL d   1      60.463  -0.762  28.723  0.00  0.00     0.364 C 
ATOM     14  F   UNL d   1      61.122  -0.288  28.580  0.00  0.00    -0.159 F 
ATOM     15  F   UNL d   1      60.510  -1.579  28.597  0.00  0.00    -0.159 F 
ENDBRANCH  10  13
ENDBRANCH   6  10
ENDBRANCH   3   4
ENDBRANCH   1   3
BRANCH   1  16
ATOM     16  N   UNL d   1      56.897  -0.181  32.019  0.00  0.00    -0.278 N 
ATOM     17  C   UNL d   1      56.299  -0.690  32.264  0.00  0.00     0.101 A 
ATOM     18  C   UNL d   1      55.859  -0.514  32.934  0.00  0.00     0.100 A 
ATOM     19  N   UNL d   1      56.017   0.170  33.360  0.00  0.00    -0.301 N 
ATOM     20  C   UNL d   1      56.615   0.682  33.118  0.00  0.00     0.100 A 
ATOM     21  C   UNL d   1      57.056   0.503  32.444  0.00  0.00     0.101 A 
BRANCH  19  22
ATOM     22  C   UNL d   1      55.570   0.341  34.033  0.00  0.00     0.064 A 
ATOM     23  C   UNL d   1      55.936   0.341  34.773  0.00  0.00     0.018 A 
ATOM     24  C   UNL d   1      55.497   0.510  35.447  0.00  0.00     0.002 A 
ATOM     25  C   UNL d   1      54.690   0.680  35.385  0.00  0.00     0.000 A 
ATOM     26  C   UNL d   1      54.326   0.680  34.649  0.00  0.00     0.002 A 
ATOM     27  C   UNL d   1      54.764   0.511  33.971  0.00  0.00     0.018 A 
ENDBRANCH  19  22
ENDBRANCH   1  16
TORSDOF 6
ENDMDL
MODEL 2
REMARK VINA RESULT:      -1.7      3.755      6.157
REMARK  6 active torsions:
REMARK  status: ('A' for Active; 'I' for Inactive)
REMARK    1  A    between atoms: C_4  and  S_1 
REMARK    2  A    between atoms: C_5  and  S_1 
REMARK    3  A    between atoms: C_2  and  N_7 
REMARK    4  A    between atoms: N_3  and  C_2 
REMARK    5  A    between atoms: C_17  and  N_6 
REMARK    6  A    between atoms: N_7  and  C_12 
ROOT
ATOM      1  C   UNL d   1      56.444  -0.393  32.374  0.00  0.00     0.206 C 
ATOM      2  S   UNL d   1      56.339  -1.113  32.758  0.00  0.00    -0.038 SA
ENDROOT
BRANCH   1   3
ATOM      3  N   UNL d   1      56.014   0.271  32.619  0.00  0.00    -0.218 NA
BRANCH   3   4
ATOM      4  C   UNL d   1      55.880   0.407  33.422  0.00  0.00     0.085 A 
ATOM      5  C   UNL d   1      55.105   0.446  33.705  0.00  0.00     0.031 A 
ATOM      6  C   UNL d   1      54.975   0.581  34.504  0.00  0.00     0.094 A 
ATOM      7  C   UNL d   1      55.618   0.678  35.021  0.00  0.00     0.012 A 
ATOM      8  C   UNL d   1      56.389   0.638  34.730  0.00  0.00     0.002 A 
ATOM      9  C   UNL d   1      56.514   0.501  33.926  0.00  0.00     0.019 A 
BRANCH   6  10
ATOM     10  S   UNL d   1      54.206   0.621  34.792  0.00  0.00     0.262 S 
ATOM     11  O   UNL d   1      53.918   0.560  34.017  0.00  0.00    -0.213 OA
ATOM     12  O   UNL d   1      54.495   0.682  35.558  0.00  0.00    -0.213 OA
BRANCH  10  13
ATOM     13  C   UNL d   1      53.437   0.661  35.078  0.00  0.00     0.364 C 
ATOM     14  F   UNL d   1      53.300   0.680  35.890  0.00  0.00    -0.159 F 
ATOM     15  F   UNL d   1      52.797   0.682  34.553  0.00  0.00    -0.159 F 
ENDBRANCH  10  13
ENDBRANCH   6  10
ENDBRANCH   3   4
ENDBRANCH   1   3
BRANCH   1  16
ATOM     16  N   UNL d   1      56.975  -0.333  31.750  0.00  0.00    -0.278 N 
ATOM     17  C   UNL d   1      57.234  -1.011  31.362  0.00  0.00     0.101 A 
ATOM     18  C   UNL d   1      57.765  -0.950  30.739  0.00  0.00     0.100 A 
ATOM     19  N   UNL d   1      58.036  -0.212  30.503  0.00  0.00    -0.301 N 
ATOM     20  C   UNL d   1      57.780   0.469  30.888  0.00  0.00     0.100 A 
ATOM     21  C   UNL d   1      57.246   0.406  31.515  0.00  0.00     0.101 A 
BRANCH  19  22
ATOM     22  C   UNL d   1      58.570  -0.158  29.875  0.00  0.00     0.064 A 
ATOM     23  C   UNL d   1      59.332   0.128  30.012  0.00  0.00     0.018 A 
ATOM     24  C   UNL d   1      59.867   0.184  29.391  0.00  0.00     0.002 A 
ATOM     25  C   UNL d   1      59.644  -0.046  28.629  0.00  0.00     0.000 A 
ATOM     26  C   UNL d   1      58.886  -0.331  28.491  0.00  0.00     0.002 A 
ATOM     27  C   UNL d   1      58.347  -0.388  29.112  0.00  0.00     0.018 A 
ENDBRANCH  19  22
ENDBRANCH   1  16
TORSDOF 6
ENDMDL
MODEL 3
REMARK VINA RESULT:      -0.6      1.298      1.645
REMARK  6 active torsions:
REMARK  status: ('A' for Active; 'I' for Inactive)
REMARK    1  A    between atoms: C_4  and  S_1 
REMARK    2  A    between atoms: C_5  and  S_1 
REMARK    3  A    between atoms: C_2  and  N_7 
REMARK    4  A    between atoms: N_3  and  C_2 
REMARK    5  A    between atoms: C_17  and  N_6 
REMARK    6  A    between atoms: N_7  and  C_12 
ROOT
ATOM      1  C   UNL d   1      58.161   0.389  30.795  0.00  0.00     0.206 C 
ATOM      2  S   UNL d   1      58.928   0.682  30.849  0.00  0.00    -0.038 SA
ENDROOT
BRANCH   1   3
ATOM      3  N   UNL d   1      57.897   0.053  30.085  0.00  0.00    -0.218 NA
BRANCH   3   4
ATOM      4  C   UNL d   1      58.435  -0.288  29.561  0.00  0.00     0.085 A 
ATOM      5  C   UNL d   1      58.551  -1.105  29.571  0.00  0.00     0.031 A 
ATOM      6  C   UNL d   1      59.087  -1.443  29.049  0.00  0.00     0.094 A 
ATOM      7  C   UNL d   1      59.508  -0.964  28.516  0.00  0.00     0.012 A 
ATOM      8  C   UNL d   1      59.386  -0.148  28.513  0.00  0.00     0.002 A 
ATOM      9  C   UNL d   1      58.846   0.186  29.040  0.00  0.00     0.019 A 
BRANCH   6  10
ATOM     10  S   UNL d   1      59.207  -2.256  29.054  0.00  0.00     0.262 S 
ATOM     11  O   UNL d   1      58.410  -2.369  28.860  0.00  0.00    -0.213 OA
ATOM     12  O   UNL d   1      59.997  -2.138  29.247  0.00  0.00    -0.213 OA
BRANCH  10  13
ATOM     13  C   UNL d   1      59.325  -3.069  29.060  0.00  0.00     0.364 C 
ATOM     14  F   UNL d   1      60.057  -3.377  29.281  0.00  0.00    -0.159 F 
ATOM     15  F   UNL d   1      58.712  -3.581  28.843  0.00  0.00    -0.159 F 
ENDBRANCH  10  13
ENDBRANCH   6  10
ENDBRANCH   3   4
ENDBRANCH   1   3
BRANCH   1  16
ATOM     16  N   UNL d   1      57.658   0.428  31.444  0.00  0.00    -0.278 N 
ATOM     17  C   UNL d   1      56.858   0.253  31.358  0.00  0.00     0.101 A 
ATOM     18  C   UNL d   1      56.357   0.293  32.006  0.00  0.00     0.100 A 
ATOM     19  N   UNL d   1      56.654   0.506  32.741  0.00  0.00    -0.301 N 
ATOM     20  C   UNL d   1      57.453   0.681  32.832  0.00  0.00     0.100 A 
ATOM     21  C   UNL d   1      57.956   0.641  32.179  0.00  0.00     0.101 A 
BRANCH  19  22
ATOM     22  C   UNL d   1      56.144   0.544  33.389  0.00  0.00     0.064 A 
ATOM     23  C   UNL d   1      56.456   0.644  34.147  0.00  0.00     0.018 A 
ATOM     24  C   UNL d   1      55.953   0.682  34.796  0.00  0.00     0.002 A 
ATOM     25  C   UNL d   1      55.135   0.620  34.691  0.00  0.00     0.000 A 
ATOM     26  C   UNL d   1      54.824   0.520  33.938  0.00  0.00     0.002 A 
ATOM     27  C   UNL d   1      55.326   0.482  33.285  0.00  0.00     0.018 A 
ENDBRANCH  19  22
ENDBRANCH   1  16
TORSDOF 6
ENDMDL
