MODEL 1
REMARK VINA RESULT:      39.0      0.000      0.000
REMARK  5 active torsions:
REMARK  status: ('A' for Active; 'I' for Inactive)
REMARK    1  A    between atoms: N_2  and  S_1 
REMARK    2  A    between atoms: C_7  and  S_1 
REMARK    3  A    between atoms: C_3  and  N_2 
REMARK       I    between atoms: C_11  and  N_12 
REMARK    4  A    between atoms: C_19  and  C_11 
REMARK    5  A    between atoms: N_12  and  C_16 
ROOT
ATOM      1  C   UNL d   1     -51.273  25.832  33.486  0.00  0.00     0.105 A 
ATOM      2  C   UNL d   1     -50.465  26.008  33.559  0.00  0.00     0.015 A 
ATOM      3  C   UNL d   1     -51.815  26.402  33.362  0.00  0.00     0.015 A 
ATOM      4  C   UNL d   1     -50.744  27.370  33.379  0.00  0.00     0.085 A 
ATOM      5  C   UNL d   1     -50.211  26.777  33.504  0.00  0.00     0.020 A 
ATOM      6  C   UNL d   1     -51.553  27.193  33.306  0.00  0.00     0.020 A 
ENDROOT
BRANCH   1   7
ATOM      7  S   UNL d   1     -51.526  25.031  33.545  0.00  0.00     0.287 S 
ATOM      8  O   UNL d   1     -52.321  25.256  33.338  0.00  0.00    -0.198 OA
ATOM      9  O   UNL d   1     -50.759  24.806  33.745  0.00  0.00    -0.198 OA
BRANCH   7  10
ATOM     10  N   UNL d   1     -51.771  24.237  33.604  0.00  0.00    -0.137 NA
BRANCH  10  11
ATOM     11  C   UNL d   1     -52.581  24.041  33.538  0.00  0.00     0.203 A 
ATOM     12  N   UNL d   1     -52.787  23.280  33.326  0.00  0.00    -0.106 NA
ATOM     13  O   UNL d   1     -53.619  23.263  33.310  0.00  0.00    -0.210 OA
ATOM     14  C   UNL d   1     -53.901  23.999  33.508  0.00  0.00     0.128 A 
ATOM     15  C   UNL d   1     -53.245  24.500  33.655  0.00  0.00     0.069 A 
ATOM     16  C   UNL d   1     -54.693  24.217  33.556  0.00  0.00     0.029 C 
ENDBRANCH  10  11
ENDBRANCH   7  10
ENDBRANCH   1   7
BRANCH   4  17
ATOM     17  N   UNL d   1     -50.491  28.163  33.321  0.00  0.00    -0.208 NA
ATOM     18  C   UNL d   1     -49.872  28.431  33.784  0.00  0.00     0.279 C 
ATOM     19  O   UNL d   1     -49.620  29.218  33.727  0.00  0.00    -0.265 OA
BRANCH  18  20
ATOM     20  C   UNL d   1     -49.505  27.919  34.303  0.00  0.00     0.062 C 
ATOM     21  C   UNL d   1     -48.954  28.206  34.871  0.00  0.00     0.005 C 
ENDBRANCH  18  20
ENDBRANCH   4  17
TORSDOF 5
ENDMDL
MODEL 2
REMARK VINA RESULT:      40.6      1.572      1.785
REMARK  5 active torsions:
REMARK  status: ('A' for Active; 'I' for Inactive)
REMARK    1  A    between atoms: N_2  and  S_1 
REMARK    2  A    between atoms: C_7  and  S_1 
REMARK    3  A    between atoms: C_3  and  N_2 
REMARK       I    between atoms: C_11  and  N_12 
REMARK    4  A    between atoms: C_19  and  C_11 
REMARK    5  A    between atoms: N_12  and  C_16 
ROOT
ATOM      1  C   UNL d   1     -51.729  24.743  33.524  0.00  0.00     0.105 A 
ATOM      2  C   UNL d   1     -50.973  24.423  33.401  0.00  0.00     0.015 A 
ATOM      3  C   UNL d   1     -51.846  25.529  33.575  0.00  0.00     0.015 A 
ATOM      4  C   UNL d   1     -50.427  25.714  33.379  0.00  0.00     0.085 A 
ATOM      5  C   UNL d   1     -50.330  24.914  33.330  0.00  0.00     0.020 A 
ATOM      6  C   UNL d   1     -51.184  26.034  33.502  0.00  0.00     0.020 A 
ENDROOT
BRANCH   1   7
ATOM      7  S   UNL d   1     -52.388  24.225  33.595  0.00  0.00     0.287 S 
ATOM      8  O   UNL d   1     -52.916  24.845  33.348  0.00  0.00    -0.198 OA
ATOM      9  O   UNL d   1     -51.882  23.619  33.836  0.00  0.00    -0.198 OA
BRANCH   7  10
ATOM     10  N   UNL d   1     -53.037  23.708  33.668  0.00  0.00    -0.137 NA
BRANCH  10  11
ATOM     11  C   UNL d   1     -53.348  23.527  34.422  0.00  0.00     0.203 A 
ATOM     12  N   UNL d   1     -54.139  23.337  34.488  0.00  0.00    -0.106 NA
ATOM     13  O   UNL d   1     -54.274  23.188  35.296  0.00  0.00    -0.210 OA
ATOM     14  C   UNL d   1     -53.576  23.289  35.701  0.00  0.00     0.128 A 
ATOM     15  C   UNL d   1     -52.983  23.504  35.151  0.00  0.00     0.069 A 
ATOM     16  C   UNL d   1     -53.470  23.195  36.512  0.00  0.00     0.029 C 
ENDBRANCH  10  11
ENDBRANCH   7  10
ENDBRANCH   1   7
BRANCH   4  17
ATOM     17  N   UNL d   1     -49.772  26.226  33.308  0.00  0.00    -0.208 NA
ATOM     18  C   UNL d   1     -49.434  26.557  33.975  0.00  0.00     0.279 C 
ATOM     19  O   UNL d   1     -48.784  27.064  33.904  0.00  0.00    -0.265 OA
BRANCH  18  20
ATOM     20  C   UNL d   1     -49.742  26.384  34.710  0.00  0.00     0.062 C 
ATOM     21  C   UNL d   1     -49.625  26.910  35.358  0.00  0.00     0.005 C 
ENDBRANCH  18  20
ENDBRANCH   4  17
TORSDOF 5
ENDMDL
MODEL 3
REMARK VINA RESULT:      41.1      1.124      4.609
REMARK  5 active torsions:
REMARK  status: ('A' for Active; 'I' for Inactive)
REMARK    1  A    between atoms: N_2  and  S_1 
REMARK    2  A    between atoms: C_7  and  S_1 
REMARK    3  A    between atoms: C_3  and  N_2 
REMARK       I    between atoms: C_11  and  N_12 
REMARK    4  A    between atoms: C_19  and  C_11 
REMARK    5  A    between atoms: N_12  and  C_16 
ROOT
ATOM      1  C   UNL d   1     -51.304  25.809  33.435  0.00  0.00     0.105 A 
ATOM      2  C   UNL d   1     -50.972  25.059  33.306  0.00  0.00     0.015 A 
ATOM      3  C   UNL d   1     -52.074  25.899  33.618  0.00  0.00     0.015 A 
ATOM      4  C   UNL d   1     -52.217  24.464  33.551  0.00  0.00     0.085 A 
ATOM      5  C   UNL d   1     -51.434  24.395  33.366  0.00  0.00     0.020 A 
ATOM      6  C   UNL d   1     -52.548  25.215  33.679  0.00  0.00     0.020 A 
ENDROOT
BRANCH   1   7
ATOM      7  S   UNL d   1     -50.815  26.492  33.370  0.00  0.00     0.287 S 
ATOM      8  O   UNL d   1     -50.120  26.004  33.326  0.00  0.00    -0.198 OA
ATOM      9  O   UNL d   1     -51.485  26.972  33.412  0.00  0.00    -0.198 OA
BRANCH   7  10
ATOM     10  N   UNL d   1     -50.337  27.171  33.306  0.00  0.00    -0.137 NA
BRANCH  10  11
ATOM     11  C   UNL d   1     -49.785  27.354  33.905  0.00  0.00     0.203 A 
ATOM     12  N   UNL d   1     -49.602  26.786  34.462  0.00  0.00    -0.106 NA
ATOM     13  O   UNL d   1     -49.045  27.135  34.973  0.00  0.00    -0.210 OA
ATOM     14  C   UNL d   1     -48.900  27.895  34.723  0.00  0.00     0.128 A 
ATOM     15  C   UNL d   1     -49.367  28.041  34.044  0.00  0.00     0.069 A 
ATOM     16  C   UNL d   1     -48.383  28.429  35.077  0.00  0.00     0.029 C 
ENDBRANCH  10  11
ENDBRANCH   7  10
ENDBRANCH   1   7
BRANCH   4  17
ATOM     17  N   UNL d   1     -52.699  23.786  33.615  0.00  0.00    -0.208 NA
ATOM     18  C   UNL d   1     -53.501  23.863  33.755  0.00  0.00     0.279 C 
ATOM     19  O   UNL d   1     -53.979  23.190  33.818  0.00  0.00    -0.265 OA
BRANCH  18  20
ATOM     20  C   UNL d   1     -53.826  24.607  33.833  0.00  0.00     0.062 C 
ATOM     21  C   UNL d   1     -54.429  24.867  33.306  0.00  0.00     0.005 C 
ENDBRANCH  18  20
ENDBRANCH   4  17
TORSDOF 5
ENDMDL
