MODEL 1
REMARK VINA RESULT:      17.7      0.000      0.000
REMARK  5 active torsions:
REMARK  status: ('A' for Active; 'I' for Inactive)
REMARK    1  A    between atoms: N_7  and  C_1 
REMARK    2  A    between atoms: C_15  and  N_2 
REMARK    3  A    between atoms: C_5  and  C_10 
REMARK       I    between atoms: C_10  and  N_7 
REMARK    4  A    between atoms: C_13  and  C_11 
REMARK    5  A    between atoms: C_24  and  C_15 
ROOT
ATOM      1  N   UNL d   1     -41.917-122.250 -52.590  0.00  0.00    -0.203 NA
ATOM      2  C   UNL d   1     -42.119-123.015 -52.311  0.00  0.00     0.299 C 
ATOM      3  O   UNL d   1     -42.465-123.520 -52.817  0.00  0.00    -0.263 OA
ENDROOT
BRANCH   1   4
ATOM      4  C   UNL d   1     -42.082-122.035 -53.391  0.00  0.00     0.121 A 
ATOM      5  C   UNL d   1     -41.781-122.404 -54.082  0.00  0.00     0.102 A 
ATOM      6  N   UNL d   1     -42.092-122.009 -54.732  0.00  0.00    -0.227 N 
ATOM      7  C   UNL d   1     -41.261-123.053 -54.099  0.00  0.00     0.022 C 
ATOM      8  N   UNL d   1     -42.589-121.392 -54.455  0.00  0.00    -0.164 NA
ATOM      9  C   UNL d   1     -42.577-121.414 -53.617  0.00  0.00     0.120 A 
ATOM     10  C   UNL d   1     -42.988-120.907 -53.088  0.00  0.00     0.024 C 
BRANCH   6  11
ATOM     11  C   UNL d   1     -41.883-122.262 -55.514  0.00  0.00     0.101 C 
BRANCH  11  12
ATOM     12  C   UNL d   1     -41.839-121.702 -56.132  0.00  0.00     0.019 A 
ATOM     13  C   UNL d   1     -41.271-121.098 -56.111  0.00  0.00     0.002 A 
ATOM     14  C   UNL d   1     -41.221-120.535 -56.726  0.00  0.00     0.000 A 
ATOM     15  C   UNL d   1     -41.760-120.584 -57.376  0.00  0.00     0.000 A 
ATOM     16  C   UNL d   1     -42.318-121.175 -57.397  0.00  0.00     0.000 A 
ATOM     17  C   UNL d   1     -41.736-120.035 -58.006  0.00  0.00     0.000 C 
ATOM     18  C   UNL d   1     -42.368-121.744 -56.778  0.00  0.00     0.002 A 
ENDBRANCH  11  12
ENDBRANCH   6  11
ENDBRANCH   1   4
BRANCH   2  19
ATOM     19  C   UNL d   1     -41.796-123.374 -50.818  0.00  0.00     0.168 A 
ATOM     20  N   UNL d   1     -41.126-123.670 -50.509  0.00  0.00    -0.121 NA
ATOM     21  O   UNL d   1     -41.224-123.760 -49.734  0.00  0.00    -0.211 OA
ATOM     22  C   UNL d   1     -41.960-123.521 -49.542  0.00  0.00     0.127 A 
ATOM     23  C   UNL d   1     -42.319-123.281 -50.213  0.00  0.00     0.053 A 
BRANCH  22  24
ATOM     24  C   UNL d   1     -42.248-123.534 -48.810  0.00  0.00     0.027 A 
ATOM     25  C   UNL d   1     -43.026-123.677 -48.689  0.00  0.00     0.028 A 
ATOM     26  C   UNL d   1     -43.310-123.689 -47.962  0.00  0.00     0.119 A 
ATOM     27  O   UNL d   1     -44.042-123.814 -47.680  0.00  0.00    -0.300 OA
ATOM     28  C   UNL d   1     -42.843-123.563 -47.332  0.00  0.00     0.119 A 
ATOM     29  C   UNL d   1     -44.021-123.764 -46.892  0.00  0.00     0.304 A 
ATOM     30  O   UNL d   1     -43.277-123.609 -46.676  0.00  0.00    -0.300 OA
ATOM     31  C   UNL d   1     -42.064-123.420 -47.447  0.00  0.00     0.026 A 
ATOM     32  C   UNL d   1     -41.773-123.406 -48.173  0.00  0.00     0.004 A 
ENDBRANCH  22  24
ENDBRANCH   2  19
TORSDOF 5
ENDMDL
