MODEL 1
REMARK VINA RESULT:      -5.1      0.000      0.000
REMARK  0 active torsions:
REMARK  status: ('A' for Active; 'I' for Inactive)
ROOT
ATOM      1  N   UNL d   1     -41.294-122.980 -52.104  0.00  0.00    -0.187 N 
ATOM      2  C   UNL d   1     -41.178-122.175 -52.247  0.00  0.00     0.200 A 
ATOM      3  N   UNL d   1     -41.128-121.889 -53.019  0.00  0.00    -0.181 NA
ATOM      4  N   UNL d   1     -41.360-123.508 -52.750  0.00  0.00    -0.157 NA
ATOM      5  C   UNL d   1     -41.320-123.093 -51.286  0.00  0.00     0.194 A 
ATOM      6  C   UNL d   1     -41.193-122.407 -53.657  0.00  0.00     0.300 A 
ATOM      7  C   UNL d   1     -41.309-123.222 -53.521  0.00  0.00     0.159 A 
ATOM      8  S   UNL d   1     -41.134-121.793 -51.516  0.00  0.00    -0.045 SA
ATOM      9  C   UNL d   1     -41.222-122.366 -50.919  0.00  0.00     0.079 A 
ATOM     10  O   UNL d   1     -41.143-122.121 -54.429  0.00  0.00    -0.263 OA
ATOM     11  N   UNL d   1     -41.427-123.816 -50.906  0.00  0.00    -0.126 N 
ATOM     12  C   UNL d   1     -41.374-123.740 -54.160  0.00  0.00     0.028 C 
ENDROOT
TORSDOF 0
ENDMDL
MODEL 2
REMARK VINA RESULT:      -4.9      1.104      1.512
REMARK  0 active torsions:
REMARK  status: ('A' for Active; 'I' for Inactive)
ROOT
ATOM      1  N   UNL d   1     -41.371-122.564 -52.671  0.00  0.00    -0.187 N 
ATOM      2  C   UNL d   1     -41.278-123.382 -52.721  0.00  0.00     0.200 A 
ATOM      3  N   UNL d   1     -41.343-123.769 -53.447  0.00  0.00    -0.181 NA
ATOM      4  N   UNL d   1     -41.534-122.124 -53.365  0.00  0.00    -0.157 NA
ATOM      5  C   UNL d   1     -41.275-122.344 -51.881  0.00  0.00     0.194 A 
ATOM      6  C   UNL d   1     -41.503-123.338 -54.132  0.00  0.00     0.300 A 
ATOM      7  C   UNL d   1     -41.599-122.510 -54.090  0.00  0.00     0.159 A 
ATOM      8  S   UNL d   1     -41.124-123.666 -51.961  0.00  0.00    -0.045 SA
ATOM      9  C   UNL d   1     -41.123-123.017 -51.440  0.00  0.00     0.079 A 
ATOM     10  O   UNL d   1     -41.569-123.724 -54.858  0.00  0.00    -0.263 OA
ATOM     11  N   UNL d   1     -41.324-121.575 -51.589  0.00  0.00    -0.126 N 
ATOM     12  C   UNL d   1     -41.759-122.079 -54.775  0.00  0.00     0.028 C 
ENDROOT
TORSDOF 0
ENDMDL
MODEL 3
REMARK VINA RESULT:      -4.8      1.589      2.820
REMARK  0 active torsions:
REMARK  status: ('A' for Active; 'I' for Inactive)
ROOT
ATOM      1  N   UNL d   1     -41.497-122.605 -53.620  0.00  0.00    -0.187 N 
ATOM      2  C   UNL d   1     -41.422-123.411 -53.461  0.00  0.00     0.200 A 
ATOM      3  N   UNL d   1     -41.298-123.677 -52.690  0.00  0.00    -0.181 NA
ATOM      4  N   UNL d   1     -41.446-122.054 -52.992  0.00  0.00    -0.157 NA
ATOM      5  C   UNL d   1     -41.616-122.515 -54.433  0.00  0.00     0.194 A 
ATOM      6  C   UNL d   1     -41.247-123.137 -52.070  0.00  0.00     0.300 A 
ATOM      7  C   UNL d   1     -41.322-122.320 -52.222  0.00  0.00     0.159 A 
ATOM      8  S   UNL d   1     -41.495-123.817 -54.176  0.00  0.00    -0.045 SA
ATOM      9  C   UNL d   1     -41.615-123.257 -54.780  0.00  0.00     0.079 A 
ATOM     10  O   UNL d   1     -41.123-123.403 -51.299  0.00  0.00    -0.263 OA
ATOM     11  N   UNL d   1     -41.718-121.797 -54.825  0.00  0.00    -0.126 N 
ATOM     12  C   UNL d   1     -41.271-121.779 -51.601  0.00  0.00     0.028 C 
ENDROOT
TORSDOF 0
ENDMDL
MODEL 4
REMARK VINA RESULT:      -3.5      1.444      2.422
REMARK  0 active torsions:
REMARK  status: ('A' for Active; 'I' for Inactive)
ROOT
ATOM      1  N   UNL d   1     -41.265-123.001 -52.523  0.00  0.00    -0.187 N 
ATOM      2  C   UNL d   1     -41.329-122.195 -52.362  0.00  0.00     0.200 A 
ATOM      3  N   UNL d   1     -41.367-121.923 -51.584  0.00  0.00    -0.181 NA
ATOM      4  N   UNL d   1     -41.238-123.548 -51.889  0.00  0.00    -0.157 NA
ATOM      5  C   UNL d   1     -41.239-123.097 -53.343  0.00  0.00     0.194 A 
ATOM      6  C   UNL d   1     -41.340-122.459 -50.958  0.00  0.00     0.300 A 
ATOM      7  C   UNL d   1     -41.276-123.276 -51.111  0.00  0.00     0.159 A 
ATOM      8  S   UNL d   1     -41.343-121.794 -53.083  0.00  0.00    -0.045 SA
ATOM      9  C   UNL d   1     -41.287-122.358 -53.693  0.00  0.00     0.079 A 
ATOM     10  O   UNL d   1     -41.378-122.188 -50.179  0.00  0.00    -0.263 OA
ATOM     11  N   UNL d   1     -41.176-123.817 -53.739  0.00  0.00    -0.126 N 
ATOM     12  C   UNL d   1     -41.249-123.813 -50.485  0.00  0.00     0.028 C 
ENDROOT
TORSDOF 0
ENDMDL
MODEL 5
REMARK VINA RESULT:      -3.2      2.794      3.379
REMARK  0 active torsions:
REMARK  status: ('A' for Active; 'I' for Inactive)
ROOT
ATOM      1  N   UNL d   1     -41.935-123.064 -49.125  0.00  0.00    -0.187 N 
ATOM      2  C   UNL d   1     -42.731-123.107 -49.338  0.00  0.00     0.200 A 
ATOM      3  N   UNL d   1     -42.995-122.774 -50.045  0.00  0.00    -0.181 NA
ATOM      4  N   UNL d   1     -41.392-122.680 -49.634  0.00  0.00    -0.157 NA
ATOM      5  C   UNL d   1     -41.844-123.443 -48.397  0.00  0.00     0.194 A 
ATOM      6  C   UNL d   1     -42.462-122.395 -50.547  0.00  0.00     0.300 A 
ATOM      7  C   UNL d   1     -41.656-122.348 -50.341  0.00  0.00     0.159 A 
ATOM      8  S   UNL d   1     -43.131-123.511 -48.739  0.00  0.00    -0.045 SA
ATOM      9  C   UNL d   1     -42.577-123.720 -48.154  0.00  0.00     0.079 A 
ATOM     10  O   UNL d   1     -42.727-122.062 -51.255  0.00  0.00    -0.263 OA
ATOM     11  N   UNL d   1     -41.135-123.527 -47.985  0.00  0.00    -0.126 N 
ATOM     12  C   UNL d   1     -41.123-121.969 -50.844  0.00  0.00     0.028 C 
ENDROOT
TORSDOF 0
ENDMDL
