MODEL 1
REMARK VINA RESULT:      15.9      0.000      0.000
REMARK  3 active torsions:
REMARK  status: ('A' for Active; 'I' for Inactive)
REMARK    1  A    between atoms: C_4  and  C_1 
REMARK    2  A    between atoms: N_7  and  C_4 
REMARK    3  A    between atoms: C_9  and  N_7 
ROOT
ATOM      1  C   UNL d   1      24.275  12.335  -3.284  0.00  0.00     0.139 A 
ATOM      2  N   UNL d   1      24.167  11.826  -3.907  0.00  0.00    -0.236 NA
ATOM      3  S   UNL d   1      24.516  13.066  -3.570  0.00  0.00    -0.064 SA
ATOM      4  C   UNL d   1      24.344  12.241  -4.609  0.00  0.00     0.088 A 
ATOM      5  C   UNL d   1      24.559  13.007  -4.398  0.00  0.00     0.049 A 
ATOM      6  C   UNL d   1      24.335  12.018  -5.403  0.00  0.00     0.020 A 
ATOM      7  C   UNL d   1      24.768  13.558  -4.983  0.00  0.00     0.008 A 
ATOM      8  C   UNL d   1      24.760  13.336  -5.777  0.00  0.00     0.001 A 
ATOM      9  C   UNL d   1      24.542  12.562  -5.987  0.00  0.00     0.002 A 
ENDROOT
BRANCH   1  10
ATOM     10  C   UNL d   1      24.156  12.136  -2.488  0.00  0.00     0.159 C 
ATOM     11  S   UNL d   1      24.766  11.788  -2.050  0.00  0.00    -0.055 SA
BRANCH  10  12
ATOM     12  N   UNL d   1      23.429  12.286  -2.129  0.00  0.00    -0.233 NA
BRANCH  12  13
ATOM     13  C   UNL d   1      23.396  12.722  -1.425  0.00  0.00     0.082 A 
ATOM     14  C   UNL d   1      22.667  12.833  -1.056  0.00  0.00     0.019 A 
ATOM     15  C   UNL d   1      22.624  13.264  -0.356  0.00  0.00     0.002 A 
ATOM     16  C   UNL d   1      23.311  13.584  -0.028  0.00  0.00     0.000 A 
ATOM     17  C   UNL d   1      24.043  13.470  -0.403  0.00  0.00     0.002 A 
ATOM     18  C   UNL d   1      24.086  13.039  -1.103  0.00  0.00     0.019 A 
ENDBRANCH  12  13
ENDBRANCH  10  12
ENDBRANCH   1  10
TORSDOF 3
ENDMDL
MODEL 2
REMARK VINA RESULT:      17.8      9.514     10.347
REMARK  3 active torsions:
REMARK  status: ('A' for Active; 'I' for Inactive)
REMARK    1  A    between atoms: C_4  and  C_1 
REMARK    2  A    between atoms: N_7  and  C_4 
REMARK    3  A    between atoms: C_9  and  N_7 
ROOT
ATOM      1  C   UNL d   1      13.421  12.221  -3.009  0.00  0.00     0.139 A 
ATOM      2  N   UNL d   1      13.509  12.995  -3.235  0.00  0.00    -0.236 NA
ATOM      3  S   UNL d   1      13.156  11.780  -3.648  0.00  0.00    -0.064 SA
ATOM      4  C   UNL d   1      13.296  13.052  -4.039  0.00  0.00     0.088 A 
ATOM      5  C   UNL d   1      13.077  12.300  -4.293  0.00  0.00     0.049 A 
ATOM      6  C   UNL d   1      13.273  13.688  -4.564  0.00  0.00     0.020 A 
ATOM      7  C   UNL d   1      12.834  12.177  -5.077  0.00  0.00     0.008 A 
ATOM      8  C   UNL d   1      12.811  12.813  -5.602  0.00  0.00     0.001 A 
ATOM      9  C   UNL d   1      13.032  13.571  -5.344  0.00  0.00     0.002 A 
ENDROOT
BRANCH   1  10
ATOM     10  C   UNL d   1      13.577  11.932  -2.247  0.00  0.00     0.159 C 
ATOM     11  S   UNL d   1      12.955  11.780  -1.722  0.00  0.00    -0.055 SA
BRANCH  10  12
ATOM     12  N   UNL d   1      14.355  11.794  -2.010  0.00  0.00    -0.233 NA
BRANCH  12  13
ATOM     13  C   UNL d   1      14.661  12.181  -1.344  0.00  0.00     0.082 A 
ATOM     14  C   UNL d   1      14.178  12.285  -0.685  0.00  0.00     0.019 A 
ATOM     15  C   UNL d   1      14.472  12.669  -0.019  0.00  0.00     0.002 A 
ATOM     16  C   UNL d   1      15.248  12.947  -0.014  0.00  0.00     0.000 A 
ATOM     17  C   UNL d   1      15.732  12.840  -0.681  0.00  0.00     0.002 A 
ATOM     18  C   UNL d   1      15.439  12.456  -1.347  0.00  0.00     0.019 A 
ENDBRANCH  12  13
ENDBRANCH  10  12
ENDBRANCH   1  10
TORSDOF 3
ENDMDL
MODEL 3
REMARK VINA RESULT:      18.0      9.628     10.877
REMARK  3 active torsions:
REMARK  status: ('A' for Active; 'I' for Inactive)
REMARK    1  A    between atoms: C_4  and  C_1 
REMARK    2  A    between atoms: N_7  and  C_4 
REMARK    3  A    between atoms: C_9  and  N_7 
ROOT
ATOM      1  C   UNL d   1      13.790  12.426  -2.355  0.00  0.00     0.139 A 
ATOM      2  N   UNL d   1      13.944  13.132  -1.987  0.00  0.00    -0.236 NA
ATOM      3  S   UNL d   1      14.116  11.814  -1.917  0.00  0.00    -0.064 SA
ATOM      4  C   UNL d   1      14.380  12.969  -1.295  0.00  0.00     0.088 A 
ATOM      5  C   UNL d   1      14.485  12.153  -1.253  0.00  0.00     0.049 A 
ATOM      6  C   UNL d   1      14.689  13.455  -0.705  0.00  0.00     0.020 A 
ATOM      7  C   UNL d   1      14.903  11.817  -0.619  0.00  0.00     0.008 A 
ATOM      8  C   UNL d   1      15.213  12.304  -0.029  0.00  0.00     0.001 A 
ATOM      9  C   UNL d   1      15.105  13.127  -0.074  0.00  0.00     0.002 A 
ENDROOT
BRANCH   1  10
ATOM     10  C   UNL d   1      13.368  12.347  -3.065  0.00  0.00     0.159 C 
ATOM     11  S   UNL d   1      12.769  11.779  -3.133  0.00  0.00    -0.055 SA
BRANCH  10  12
ATOM     12  N   UNL d   1      13.544  12.835  -3.706  0.00  0.00    -0.233 NA
BRANCH  12  13
ATOM     13  C   UNL d   1      13.497  12.538  -4.479  0.00  0.00     0.082 A 
ATOM     14  C   UNL d   1      12.825  12.120  -4.707  0.00  0.00     0.019 A 
ATOM     15  C   UNL d   1      12.769  11.820  -5.472  0.00  0.00     0.002 A 
ATOM     16  C   UNL d   1      13.386  11.941  -6.005  0.00  0.00     0.000 A 
ATOM     17  C   UNL d   1      14.062  12.362  -5.771  0.00  0.00     0.002 A 
ATOM     18  C   UNL d   1      14.119  12.662  -5.007  0.00  0.00     0.019 A 
ENDBRANCH  12  13
ENDBRANCH  10  12
ENDBRANCH   1  10
TORSDOF 3
ENDMDL
