MODEL 1
REMARK VINA RESULT:      -6.8      0.000      0.000
REMARK  4 active torsions:
REMARK  status: ('A' for Active; 'I' for Inactive)
REMARK    1  A    between atoms: N_3  and  C_1 
REMARK       I    between atoms: C_7  and  N_3 
REMARK    2  A    between atoms: C_15  and  C_7 
REMARK    3  A    between atoms: C_10  and  S_11 
REMARK    4  A    between atoms: S_11  and  C_15 
ROOT
ATOM      1  C   UNL d   1     -46.807  13.319  23.102  0.00  0.00     0.182 A 
ATOM      2  N   UNL d   1     -47.562  12.999  23.201  0.00  0.00    -0.283 N 
ATOM      3  S   UNL d   1     -46.895  14.107  22.854  0.00  0.00    -0.048 SA
ATOM      4  C   UNL d   1     -47.708  14.268  22.802  0.00  0.00     0.051 A 
ATOM      5  C   UNL d   1     -48.120  13.584  23.016  0.00  0.00     0.072 A 
ATOM      6  C   UNL d   1     -48.116  14.955  22.585  0.00  0.00     0.038 A 
ATOM      7  C   UNL d   1     -48.939  13.589  23.012  0.00  0.00     0.020 A 
ATOM      8  C   UNL d   1     -48.937  14.941  22.587  0.00  0.00     0.141 A 
ATOM      9  C   UNL d   1     -49.349  14.258  22.800  0.00  0.00     0.031 A 
ATOM     10  C   UNL d   1     -47.726  12.235  23.441  0.00  0.00     0.101 C 
ATOM     11  F   UNL d   1     -49.358  15.623  22.371  0.00  0.00    -0.204 F 
ENDROOT
BRANCH   1  12
ATOM     12  N   UNL d   1     -46.091  12.927  23.228  0.00  0.00    -0.183 NA
ATOM     13  C   UNL d   1     -45.665  13.033  22.525  0.00  0.00     0.288 C 
ATOM     14  O   UNL d   1     -45.998  13.463  21.900  0.00  0.00    -0.265 OA
BRANCH  13  15
ATOM     15  C   UNL d   1     -44.914  12.715  22.442  0.00  0.00     0.101 C 
BRANCH  15  16
ATOM     16  S   UNL d   1     -44.460  12.878  21.768  0.00  0.00    -0.040 SA
BRANCH  16  17
ATOM     17  C   UNL d   1     -43.687  12.580  21.704  0.00  0.00     0.226 C 
ATOM     18  O   UNL d   1     -43.478  11.908  22.134  0.00  0.00    -0.279 OA
ATOM     19  C   UNL d   1     -43.145  12.952  21.220  0.00  0.00     0.053 C 
ENDBRANCH  16  17
ENDBRANCH  15  16
ENDBRANCH  13  15
ENDBRANCH   1  12
TORSDOF 4
ENDMDL
MODEL 2
REMARK VINA RESULT:      -6.8      2.513      4.630
REMARK  4 active torsions:
REMARK  status: ('A' for Active; 'I' for Inactive)
REMARK    1  A    between atoms: N_3  and  C_1 
REMARK       I    between atoms: C_7  and  N_3 
REMARK    2  A    between atoms: C_15  and  C_7 
REMARK    3  A    between atoms: C_10  and  S_11 
REMARK    4  A    between atoms: S_11  and  C_15 
ROOT
ATOM      1  C   UNL d   1     -47.619  13.839  23.100  0.00  0.00     0.182 A 
ATOM      2  N   UNL d   1     -46.814  13.753  22.933  0.00  0.00    -0.283 N 
ATOM      3  S   UNL d   1     -47.904  13.105  23.363  0.00  0.00    -0.048 SA
ATOM      4  C   UNL d   1     -47.270  12.569  23.356  0.00  0.00     0.051 A 
ATOM      5  C   UNL d   1     -46.598  12.968  23.091  0.00  0.00     0.072 A 
ATOM      6  C   UNL d   1     -47.230  11.767  23.561  0.00  0.00     0.038 A 
ATOM      7  C   UNL d   1     -45.886  12.566  23.030  0.00  0.00     0.020 A 
ATOM      8  C   UNL d   1     -46.509  11.380  23.494  0.00  0.00     0.141 A 
ATOM      9  C   UNL d   1     -45.837  11.780  23.229  0.00  0.00     0.031 A 
ATOM     10  C   UNL d   1     -46.321  14.345  22.658  0.00  0.00     0.101 C 
ATOM     11  F   UNL d   1     -46.455  10.577  23.695  0.00  0.00    -0.204 F 
ENDROOT
BRANCH   1  12
ATOM     12  N   UNL d   1     -48.062  14.532  23.019  0.00  0.00    -0.183 NA
ATOM     13  C   UNL d   1     -48.822  14.274  22.812  0.00  0.00     0.288 C 
ATOM     14  O   UNL d   1     -48.978  13.464  22.734  0.00  0.00    -0.265 OA
BRANCH  13  15
ATOM     15  C   UNL d   1     -49.424  14.815  22.685  0.00  0.00     0.101 C 
BRANCH  15  16
ATOM     16  S   UNL d   1     -50.137  14.760  23.104  0.00  0.00    -0.040 SA
BRANCH  16  17
ATOM     17  C   UNL d   1     -50.713  15.355  23.028  0.00  0.00     0.226 C 
ATOM     18  O   UNL d   1     -51.064  15.482  22.293  0.00  0.00    -0.279 OA
ATOM     19  C   UNL d   1     -50.923  15.804  23.677  0.00  0.00     0.053 C 
ENDBRANCH  16  17
ENDBRANCH  15  16
ENDBRANCH  13  15
ENDBRANCH   1  12
TORSDOF 4
ENDMDL
MODEL 3
REMARK VINA RESULT:      -6.6      2.141      4.374
REMARK  4 active torsions:
REMARK  status: ('A' for Active; 'I' for Inactive)
REMARK    1  A    between atoms: N_3  and  C_1 
REMARK       I    between atoms: C_7  and  N_3 
REMARK    2  A    between atoms: C_15  and  C_7 
REMARK    3  A    between atoms: C_10  and  S_11 
REMARK    4  A    between atoms: S_11  and  C_15 
ROOT
ATOM      1  C   UNL d   1     -47.706  13.143  23.031  0.00  0.00     0.182 A 
ATOM      2  N   UNL d   1     -47.261  12.481  23.250  0.00  0.00    -0.283 N 
ATOM      3  S   UNL d   1     -47.212  13.648  22.594  0.00  0.00    -0.048 SA
ATOM      4  C   UNL d   1     -46.463  13.292  22.547  0.00  0.00     0.051 A 
ATOM      5  C   UNL d   1     -46.493  12.573  22.951  0.00  0.00     0.072 A 
ATOM      6  C   UNL d   1     -45.762  13.542  22.183  0.00  0.00     0.038 A 
ATOM      7  C   UNL d   1     -45.822  12.104  22.991  0.00  0.00     0.020 A 
ATOM      8  C   UNL d   1     -45.100  13.059  22.234  0.00  0.00     0.141 A 
ATOM      9  C   UNL d   1     -45.130  12.340  22.638  0.00  0.00     0.031 A 
ATOM     10  C   UNL d   1     -47.537  11.848  23.686  0.00  0.00     0.101 C 
ATOM     11  F   UNL d   1     -44.390  13.297  21.874  0.00  0.00    -0.204 F 
ENDROOT
BRANCH   1  12
ATOM     12  N   UNL d   1     -48.500  13.279  23.213  0.00  0.00    -0.183 NA
ATOM     13  C   UNL d   1     -48.665  14.026  22.896  0.00  0.00     0.288 C 
ATOM     14  O   UNL d   1     -48.072  14.449  22.501  0.00  0.00    -0.265 OA
BRANCH  13  15
ATOM     15  C   UNL d   1     -49.413  14.352  22.970  0.00  0.00     0.101 C 
BRANCH  15  16
ATOM     16  S   UNL d   1     -49.526  15.169  22.886  0.00  0.00    -0.040 SA
BRANCH  16  17
ATOM     17  C   UNL d   1     -50.278  15.501  23.014  0.00  0.00     0.226 C 
ATOM     18  O   UNL d   1     -50.864  15.400  22.443  0.00  0.00    -0.279 OA
ATOM     19  C   UNL d   1     -50.427  15.922  23.698  0.00  0.00     0.053 C 
ENDBRANCH  16  17
ENDBRANCH  15  16
ENDBRANCH  13  15
ENDBRANCH   1  12
TORSDOF 4
ENDMDL
MODEL 4
REMARK VINA RESULT:      -6.5      1.702      2.320
REMARK  4 active torsions:
REMARK  status: ('A' for Active; 'I' for Inactive)
REMARK    1  A    between atoms: N_3  and  C_1 
REMARK       I    between atoms: C_7  and  N_3 
REMARK    2  A    between atoms: C_15  and  C_7 
REMARK    3  A    between atoms: C_10  and  S_11 
REMARK    4  A    between atoms: S_11  and  C_15 
ROOT
ATOM      1  C   UNL d   1     -48.346  13.655  23.025  0.00  0.00     0.182 A 
ATOM      2  N   UNL d   1     -49.060  13.979  22.764  0.00  0.00    -0.283 N 
ATOM      3  S   UNL d   1     -48.503  12.894  23.318  0.00  0.00    -0.048 SA
ATOM      4  C   UNL d   1     -49.318  12.754  23.236  0.00  0.00     0.051 A 
ATOM      5  C   UNL d   1     -49.661  13.423  22.894  0.00  0.00     0.072 A 
ATOM      6  C   UNL d   1     -49.781  12.097  23.432  0.00  0.00     0.038 A 
ATOM      7  C   UNL d   1     -50.468  13.434  22.749  0.00  0.00     0.020 A 
ATOM      8  C   UNL d   1     -50.588  12.125  23.280  0.00  0.00     0.141 A 
ATOM      9  C   UNL d   1     -50.931  12.794  22.938  0.00  0.00     0.031 A 
ATOM     10  C   UNL d   1     -49.151  14.722  22.435  0.00  0.00     0.101 C 
ATOM     11  F   UNL d   1     -51.064  11.473  23.472  0.00  0.00    -0.204 F 
ENDROOT
BRANCH   1  12
ATOM     12  N   UNL d   1     -47.606  14.021  22.999  0.00  0.00    -0.183 NA
ATOM     13  C   UNL d   1     -47.091  13.440  22.710  0.00  0.00     0.288 C 
ATOM     14  O   UNL d   1     -47.381  12.687  22.522  0.00  0.00    -0.265 OA
BRANCH  13  15
ATOM     15  C   UNL d   1     -46.295  13.604  22.607  0.00  0.00     0.101 C 
BRANCH  15  16
ATOM     16  S   UNL d   1     -45.798  13.058  22.230  0.00  0.00    -0.040 SA
BRANCH  16  17
ATOM     17  C   UNL d   1     -45.004  13.253  22.078  0.00  0.00     0.226 C 
ATOM     18  O   UNL d   1     -44.751  14.029  22.194  0.00  0.00    -0.279 OA
ATOM     19  C   UNL d   1     -44.486  12.677  21.818  0.00  0.00     0.053 C 
ENDBRANCH  16  17
ENDBRANCH  15  16
ENDBRANCH  13  15
ENDBRANCH   1  12
TORSDOF 4
ENDMDL
MODEL 5
REMARK VINA RESULT:      -6.4      1.628      1.792
REMARK  4 active torsions:
REMARK  status: ('A' for Active; 'I' for Inactive)
REMARK    1  A    between atoms: N_3  and  C_1 
REMARK       I    between atoms: C_7  and  N_3 
REMARK    2  A    between atoms: C_15  and  C_7 
REMARK    3  A    between atoms: C_10  and  S_11 
REMARK    4  A    between atoms: S_11  and  C_15 
ROOT
ATOM      1  C   UNL d   1     -47.303  12.202  23.198  0.00  0.00     0.182 A 
ATOM      2  N   UNL d   1     -48.063  12.288  22.885  0.00  0.00    -0.283 N 
ATOM      3  S   UNL d   1     -46.955  12.955  23.232  0.00  0.00    -0.048 SA
ATOM      4  C   UNL d   1     -47.505  13.503  22.938  0.00  0.00     0.051 A 
ATOM      5  C   UNL d   1     -48.189  13.091  22.724  0.00  0.00     0.072 A 
ATOM      6  C   UNL d   1     -47.460  14.324  22.841  0.00  0.00     0.038 A 
ATOM      7  C   UNL d   1     -48.827  13.502  22.414  0.00  0.00     0.020 A 
ATOM      8  C   UNL d   1     -48.109  14.719  22.529  0.00  0.00     0.141 A 
ATOM      9  C   UNL d   1     -48.793  14.308  22.315  0.00  0.00     0.031 A 
ATOM     10  C   UNL d   1     -48.596  11.681  22.759  0.00  0.00     0.101 C 
ATOM     11  F   UNL d   1     -48.078  15.542  22.427  0.00  0.00    -0.204 F 
ENDROOT
BRANCH   1  12
ATOM     12  N   UNL d   1     -46.952  11.493  23.436  0.00  0.00    -0.183 NA
ATOM     13  C   UNL d   1     -46.140  11.658  23.463  0.00  0.00     0.288 C 
ATOM     14  O   UNL d   1     -45.864  12.414  23.268  0.00  0.00    -0.265 OA
BRANCH  13  15
ATOM     15  C   UNL d   1     -45.605  11.076  23.680  0.00  0.00     0.101 C 
BRANCH  15  16
ATOM     16  S   UNL d   1     -44.899  10.974  23.258  0.00  0.00    -0.040 SA
BRANCH  16  17
ATOM     17  C   UNL d   1     -44.329  10.430  23.523  0.00  0.00     0.226 C 
ATOM     18  O   UNL d   1     -43.552  10.682  23.631  0.00  0.00    -0.279 OA
ATOM     19  C   UNL d   1     -44.543   9.656  23.674  0.00  0.00     0.053 C 
ENDBRANCH  16  17
ENDBRANCH  15  16
ENDBRANCH  13  15
ENDBRANCH   1  12
TORSDOF 4
ENDMDL
MODEL 6
REMARK VINA RESULT:      -5.1      7.489      8.199
REMARK  4 active torsions:
REMARK  status: ('A' for Active; 'I' for Inactive)
REMARK    1  A    between atoms: N_3  and  C_1 
REMARK       I    between atoms: C_7  and  N_3 
REMARK    2  A    between atoms: C_15  and  C_7 
REMARK    3  A    between atoms: C_10  and  S_11 
REMARK    4  A    between atoms: S_11  and  C_15 
ROOT
ATOM      1  C   UNL d   1     -40.342  14.622  19.636  0.00  0.00     0.182 A 
ATOM      2  N   UNL d   1     -40.593  15.279  19.202  0.00  0.00    -0.283 N 
ATOM      3  S   UNL d   1     -39.956  14.105  19.114  0.00  0.00    -0.048 SA
ATOM      4  C   UNL d   1     -39.972  14.448  18.358  0.00  0.00     0.051 A 
ATOM      5  C   UNL d   1     -40.365  15.172  18.412  0.00  0.00     0.072 A 
ATOM      6  C   UNL d   1     -39.674  14.183  17.632  0.00  0.00     0.038 A 
ATOM      7  C   UNL d   1     -40.460  15.631  17.740  0.00  0.00     0.020 A 
ATOM      8  C   UNL d   1     -39.779  14.656  16.969  0.00  0.00     0.141 A 
ATOM      9  C   UNL d   1     -40.172  15.380  17.023  0.00  0.00     0.031 A 
ATOM     10  C   UNL d   1     -40.997  15.922  19.505  0.00  0.00     0.101 C 
ATOM     11  F   UNL d   1     -39.486  14.403  16.235  0.00  0.00    -0.204 F 
ENDROOT
BRANCH   1  12
ATOM     12  N   UNL d   1     -40.454  14.501  20.445  0.00  0.00    -0.183 NA
ATOM     13  C   UNL d   1     -39.704  14.302  20.736  0.00  0.00     0.288 C 
ATOM     14  O   UNL d   1     -39.057  14.265  20.220  0.00  0.00    -0.265 OA
BRANCH  13  15
ATOM     15  C   UNL d   1     -39.597  14.139  21.532  0.00  0.00     0.101 C 
BRANCH  15  16
ATOM     16  S   UNL d   1     -38.837  14.136  21.862  0.00  0.00    -0.040 SA
BRANCH  16  17
ATOM     17  C   UNL d   1     -38.739  14.043  22.683  0.00  0.00     0.226 C 
ATOM     18  O   UNL d   1     -38.817  14.700  23.174  0.00  0.00    -0.279 OA
ATOM     19  C   UNL d   1     -38.567  13.306  22.992  0.00  0.00     0.053 C 
ENDBRANCH  16  17
ENDBRANCH  15  16
ENDBRANCH  13  15
ENDBRANCH   1  12
TORSDOF 4
ENDMDL
