MODEL 1
REMARK VINA RESULT:      76.3      0.000      0.000
REMARK  2 active torsions:
REMARK  status: ('A' for Active; 'I' for Inactive)
REMARK       I    between atoms: C_3  and  N_1 
REMARK       I    between atoms: C_4  and  N_2 
REMARK    1  A    between atoms: C_5  and  C_3 
REMARK    2  A    between atoms: C_6  and  C_4 
ROOT
ATOM      1  N   UNL d   1      59.846  49.561  51.769  0.00  0.00    -0.270 N 
ATOM      2  N   UNL d   1      59.478  49.594  53.377  0.00  0.00    -0.269 N 
ATOM      3  C   UNL d   1      60.025  49.545  50.974  0.00  0.00     0.271 C 
ATOM      4  C   UNL d   1      59.286  49.611  54.169  0.00  0.00     0.271 C 
ATOM      5  C   UNL d   1      60.457  49.575  52.334  0.00  0.00     0.085 A 
ATOM      6  C   UNL d   1      60.264  49.591  53.125  0.00  0.00     0.101 A 
ATOM      7  C   UNL d   1      59.051  49.563  51.997  0.00  0.00     0.102 A 
ATOM      8  C   UNL d   1      58.868  49.580  52.812  0.00  0.00     0.102 A 
ATOM      9  O   UNL d   1      59.408  49.530  50.408  0.00  0.00    -0.266 OA
ATOM     10  O   UNL d   1      59.883  49.624  54.723  0.00  0.00    -0.266 OA
ATOM     11  C   UNL d   1      61.243  49.572  52.082  0.00  0.00     0.021 C 
ENDROOT
BRANCH   3  12
ATOM     12  C   UNL d   1      60.804  49.542  50.713  0.00  0.00     0.086 A 
ATOM     13  S   UNL d   1      61.631  49.510  50.747  0.00  0.00    -0.082 SA
ATOM     14  C   UNL d   1      61.918  49.570  49.979  0.00  0.00     0.036 A 
ATOM     15  C   UNL d   1      61.267  49.638  49.467  0.00  0.00     0.008 A 
ATOM     16  C   UNL d   1      60.577  49.620  49.929  0.00  0.00     0.012 A 
ENDBRANCH   3  12
BRANCH   4  17
ATOM     17  C   UNL d   1      58.581  49.617  54.597  0.00  0.00     0.086 A 
ATOM     18  S   UNL d   1      57.758  49.590  54.617  0.00  0.00    -0.082 SA
ATOM     19  C   UNL d   1      57.524  49.640  55.411  0.00  0.00     0.036 A 
ATOM     20  C   UNL d   1      58.220  49.698  55.873  0.00  0.00     0.008 A 
ATOM     21  C   UNL d   1      58.856  49.683  55.359  0.00  0.00     0.012 A 
ENDBRANCH   4  17
TORSDOF 2
ENDMDL
