MODEL 1
REMARK VINA RESULT:      -4.3      0.000      0.000
REMARK  3 active torsions:
REMARK  status: ('A' for Active; 'I' for Inactive)
REMARK    1  A    between atoms: N_6  and  C_2 
REMARK    2  A    between atoms: C_8  and  C_3 
REMARK       I    between atoms: C_7  and  N_6 
REMARK    3  A    between atoms: C_10  and  C_7 
ROOT
ATOM      1  N   UNL d   1      56.305   0.460  32.108  0.00  0.00    -0.200 NA
ATOM      2  C   UNL d   1      56.750   0.011  31.586  0.00  0.00     0.216 A 
ATOM      3  C   UNL d   1      56.118  -0.017  32.763  0.00  0.00     0.172 A 
ATOM      4  N   UNL d   1      56.452  -0.761  32.636  0.00  0.00    -0.187 NA
ATOM      5  S   UNL d   1      56.845  -0.746  31.907  0.00  0.00     0.054 SA
ENDROOT
BRANCH   3   6
ATOM      6  C   UNL d   1      55.678   0.213  33.417  0.00  0.00     0.036 A 
ATOM      7  C   UNL d   1      56.056   0.446  34.108  0.00  0.00     0.003 A 
ATOM      8  C   UNL d   1      55.606   0.676  34.762  0.00  0.00     0.000 A 
ATOM      9  C   UNL d   1      54.782   0.673  34.720  0.00  0.00     0.000 A 
ATOM     10  C   UNL d   1      54.403   0.440  34.026  0.00  0.00     0.000 A 
ATOM     11  C   UNL d   1      54.857   0.210  33.374  0.00  0.00     0.003 A 
ENDBRANCH   3   6
BRANCH   2  12
ATOM     12  N   UNL d   1      57.052   0.270  30.865  0.00  0.00    -0.181 NA
ATOM     13  C   UNL d   1      57.866   0.358  30.771  0.00  0.00     0.281 C 
ATOM     14  O   UNL d   1      58.376   0.189  31.394  0.00  0.00    -0.265 OA
BRANCH  13  15
ATOM     15  C   UNL d   1      58.166   0.615  30.056  0.00  0.00     0.063 C 
ATOM     16  C   UNL d   1      58.982   0.681  29.941  0.00  0.00     0.005 C 
ENDBRANCH  13  15
ENDBRANCH   2  12
TORSDOF 3
ENDMDL
MODEL 2
REMARK VINA RESULT:      -4.1      1.241      4.378
REMARK  3 active torsions:
REMARK  status: ('A' for Active; 'I' for Inactive)
REMARK    1  A    between atoms: N_6  and  C_2 
REMARK    2  A    between atoms: C_8  and  C_3 
REMARK       I    between atoms: C_7  and  N_6 
REMARK    3  A    between atoms: C_10  and  C_7 
ROOT
ATOM      1  N   UNL d   1      57.330  -0.494  31.086  0.00  0.00    -0.200 NA
ATOM      2  C   UNL d   1      57.144  -0.170  31.816  0.00  0.00     0.216 A 
ATOM      3  C   UNL d   1      57.845   0.030  30.696  0.00  0.00     0.172 A 
ATOM      4  N   UNL d   1      57.972   0.676  31.194  0.00  0.00    -0.187 NA
ATOM      5  S   UNL d   1      57.538   0.554  31.889  0.00  0.00     0.054 SA
ENDROOT
BRANCH   3   6
ATOM      6  C   UNL d   1      58.168  -0.079  29.948  0.00  0.00     0.036 A 
ATOM      7  C   UNL d   1      58.130   0.522  29.391  0.00  0.00     0.003 A 
ATOM      8  C   UNL d   1      58.458   0.404  28.641  0.00  0.00     0.000 A 
ATOM      9  C   UNL d   1      58.820  -0.313  28.455  0.00  0.00     0.000 A 
ATOM     10  C   UNL d   1      58.858  -0.917  29.016  0.00  0.00     0.000 A 
ATOM     11  C   UNL d   1      58.529  -0.794  29.765  0.00  0.00     0.003 A 
ENDBRANCH   3   6
BRANCH   2  12
ATOM     12  N   UNL d   1      56.649  -0.508  32.381  0.00  0.00    -0.181 NA
ATOM     13  C   UNL d   1      56.008  -0.080  32.671  0.00  0.00     0.281 C 
ATOM     14  O   UNL d   1      55.861   0.682  32.398  0.00  0.00    -0.265 OA
BRANCH  13  15
ATOM     15  C   UNL d   1      55.517  -0.416  33.231  0.00  0.00     0.063 C 
ATOM     16  C   UNL d   1      55.083   0.061  33.749  0.00  0.00     0.005 C 
ENDBRANCH  13  15
ENDBRANCH   2  12
TORSDOF 3
ENDMDL
MODEL 3
REMARK VINA RESULT:      -3.8      1.050      3.903
REMARK  3 active torsions:
REMARK  status: ('A' for Active; 'I' for Inactive)
REMARK    1  A    between atoms: N_6  and  C_2 
REMARK    2  A    between atoms: C_8  and  C_3 
REMARK       I    between atoms: C_7  and  N_6 
REMARK    3  A    between atoms: C_10  and  C_7 
ROOT
ATOM      1  N   UNL d   1      56.541   0.360  31.953  0.00  0.00    -0.200 NA
ATOM      2  C   UNL d   1      56.077  -0.131  32.418  0.00  0.00     0.216 A 
ATOM      3  C   UNL d   1      57.078  -0.117  31.533  0.00  0.00     0.172 A 
ATOM      4  N   UNL d   1      56.937  -0.902  31.745  0.00  0.00    -0.187 NA
ATOM      5  S   UNL d   1      56.317  -0.913  32.294  0.00  0.00     0.054 SA
ENDROOT
BRANCH   3   6
ATOM      6  C   UNL d   1      57.645   0.150  31.002  0.00  0.00     0.036 A 
ATOM      7  C   UNL d   1      58.378   0.401  31.273  0.00  0.00     0.003 A 
ATOM      8  C   UNL d   1      58.944   0.668  30.732  0.00  0.00     0.000 A 
ATOM      9  C   UNL d   1      58.772   0.681  29.925  0.00  0.00     0.000 A 
ATOM     10  C   UNL d   1      58.036   0.427  29.653  0.00  0.00     0.000 A 
ATOM     11  C   UNL d   1      57.473   0.161  30.199  0.00  0.00     0.003 A 
ENDBRANCH   3   6
BRANCH   2  12
ATOM     12  N   UNL d   1      55.474   0.114  32.923  0.00  0.00    -0.181 NA
ATOM     13  C   UNL d   1      55.588   0.085  33.739  0.00  0.00     0.281 C 
ATOM     14  O   UNL d   1      56.300  -0.187  34.049  0.00  0.00    -0.265 OA
BRANCH  13  15
ATOM     15  C   UNL d   1      54.990   0.328  34.240  0.00  0.00     0.063 C 
ATOM     16  C   UNL d   1      55.168   0.682  34.965  0.00  0.00     0.005 C 
ENDBRANCH  13  15
ENDBRANCH   2  12
TORSDOF 3
ENDMDL
MODEL 4
REMARK VINA RESULT:      -3.6      9.268      9.724
REMARK  3 active torsions:
REMARK  status: ('A' for Active; 'I' for Inactive)
REMARK    1  A    between atoms: N_6  and  C_2 
REMARK    2  A    between atoms: C_8  and  C_3 
REMARK       I    between atoms: C_7  and  N_6 
REMARK    3  A    between atoms: C_10  and  C_7 
ROOT
ATOM      1  N   UNL d   1      59.389  -8.514  34.008  0.00  0.00    -0.200 NA
ATOM      2  C   UNL d   1      59.273  -9.273  33.722  0.00  0.00     0.216 A 
ATOM      3  C   UNL d   1      59.567  -8.569  34.819  0.00  0.00     0.172 A 
ATOM      4  N   UNL d   1      59.559  -9.368  35.024  0.00  0.00    -0.187 NA
ATOM      5  S   UNL d   1      59.377  -9.807  34.346  0.00  0.00     0.054 SA
ENDROOT
BRANCH   3   6
ATOM      6  C   UNL d   1      59.723  -7.939  35.322  0.00  0.00     0.036 A 
ATOM      7  C   UNL d   1      59.107  -7.485  35.619  0.00  0.00     0.003 A 
ATOM      8  C   UNL d   1      59.272  -6.852  36.124  0.00  0.00     0.000 A 
ATOM      9  C   UNL d   1      60.052  -6.679  36.330  0.00  0.00     0.000 A 
ATOM     10  C   UNL d   1      60.671  -7.135  36.032  0.00  0.00     0.000 A 
ATOM     11  C   UNL d   1      60.500  -7.768  35.526  0.00  0.00     0.003 A 
ENDBRANCH   3   6
BRANCH   2  12
ATOM     12  N   UNL d   1      59.085  -9.471  32.945  0.00  0.00    -0.181 NA
ATOM     13  C   UNL d   1      58.298  -9.595  32.734  0.00  0.00     0.281 C 
ATOM     14  O   UNL d   1      57.702  -9.523  33.296  0.00  0.00    -0.265 OA
BRANCH  13  15
ATOM     15  C   UNL d   1      58.112  -9.792  31.963  0.00  0.00     0.063 C 
ATOM     16  C   UNL d   1      57.337  -9.718  31.687  0.00  0.00     0.005 C 
ENDBRANCH  13  15
ENDBRANCH   2  12
TORSDOF 3
ENDMDL
MODEL 5
REMARK VINA RESULT:      -3.5      1.746      4.955
REMARK  3 active torsions:
REMARK  status: ('A' for Active; 'I' for Inactive)
REMARK    1  A    between atoms: N_6  and  C_2 
REMARK    2  A    between atoms: C_8  and  C_3 
REMARK       I    between atoms: C_7  and  N_6 
REMARK    3  A    between atoms: C_10  and  C_7 
ROOT
ATOM      1  N   UNL d   1      58.456  -0.305  30.552  0.00  0.00    -0.200 NA
ATOM      2  C   UNL d   1      57.816   0.174  30.737  0.00  0.00     0.216 A 
ATOM      3  C   UNL d   1      58.632  -0.198  29.747  0.00  0.00     0.172 A 
ATOM      4  N   UNL d   1      58.096   0.350  29.442  0.00  0.00    -0.187 NA
ATOM      5  S   UNL d   1      57.588   0.582  30.054  0.00  0.00     0.054 SA
ENDROOT
BRANCH   3   6
ATOM      6  C   UNL d   1      59.235  -0.573  29.332  0.00  0.00     0.036 A 
ATOM      7  C   UNL d   1      59.085  -1.271  28.927  0.00  0.00     0.003 A 
ATOM      8  C   UNL d   1      59.696  -1.641  28.512  0.00  0.00     0.000 A 
ATOM      9  C   UNL d   1      60.452  -1.311  28.505  0.00  0.00     0.000 A 
ATOM     10  C   UNL d   1      60.602  -0.609  28.911  0.00  0.00     0.000 A 
ATOM     11  C   UNL d   1      59.987  -0.242  29.326  0.00  0.00     0.003 A 
ENDBRANCH   3   6
BRANCH   2  12
ATOM     12  N   UNL d   1      57.460   0.238  31.477  0.00  0.00    -0.181 NA
ATOM     13  C   UNL d   1      56.894  -0.315  31.707  0.00  0.00     0.281 C 
ATOM     14  O   UNL d   1      56.683  -0.927  31.200  0.00  0.00    -0.265 OA
BRANCH  13  15
ATOM     15  C   UNL d   1      56.541  -0.251  32.441  0.00  0.00     0.063 C 
ATOM     16  C   UNL d   1      56.181  -0.907  32.792  0.00  0.00     0.005 C 
ENDBRANCH  13  15
ENDBRANCH   2  12
TORSDOF 3
ENDMDL
MODEL 6
REMARK VINA RESULT:      -3.2      2.709      3.834
REMARK  3 active torsions:
REMARK  status: ('A' for Active; 'I' for Inactive)
REMARK    1  A    between atoms: N_6  and  C_2 
REMARK    2  A    between atoms: C_8  and  C_3 
REMARK       I    between atoms: C_7  and  N_6 
REMARK    3  A    between atoms: C_10  and  C_7 
ROOT
ATOM      1  N   UNL d   1      58.333  -1.574  29.844  0.00  0.00    -0.200 NA
ATOM      2  C   UNL d   1      58.769  -1.647  29.153  0.00  0.00     0.216 A 
ATOM      3  C   UNL d   1      58.157  -0.768  29.951  0.00  0.00     0.172 A 
ATOM      4  N   UNL d   1      58.488  -0.352  29.320  0.00  0.00    -0.187 NA
ATOM      5  S   UNL d   1      58.869  -0.895  28.824  0.00  0.00     0.054 SA
ENDROOT
BRANCH   3   6
ATOM      6  C   UNL d   1      57.729  -0.447  30.574  0.00  0.00     0.036 A 
ATOM      7  C   UNL d   1      57.701   0.366  30.681  0.00  0.00     0.003 A 
ATOM      8  C   UNL d   1      57.268   0.681  31.311  0.00  0.00     0.000 A 
ATOM      9  C   UNL d   1      56.866   0.180  31.828  0.00  0.00     0.000 A 
ATOM     10  C   UNL d   1      56.894  -0.637  31.721  0.00  0.00     0.000 A 
ATOM     11  C   UNL d   1      57.329  -0.947  31.089  0.00  0.00     0.003 A 
ENDBRANCH   3   6
BRANCH   2  12
ATOM     12  N   UNL d   1      59.059  -2.353  28.840  0.00  0.00    -0.181 NA
ATOM     13  C   UNL d   1      59.858  -2.536  28.919  0.00  0.00     0.281 C 
ATOM     14  O   UNL d   1      60.366  -2.018  29.308  0.00  0.00    -0.265 OA
BRANCH  13  15
ATOM     15  C   UNL d   1      60.146  -3.235  28.608  0.00  0.00     0.063 C 
ATOM     16  C   UNL d   1      60.889  -3.519  28.831  0.00  0.00     0.005 C 
ENDBRANCH  13  15
ENDBRANCH   2  12
TORSDOF 3
ENDMDL
MODEL 7
REMARK VINA RESULT:      -1.9     10.003     10.647
REMARK  3 active torsions:
REMARK  status: ('A' for Active; 'I' for Inactive)
REMARK    1  A    between atoms: N_6  and  C_2 
REMARK    2  A    between atoms: C_8  and  C_3 
REMARK       I    between atoms: C_7  and  N_6 
REMARK    3  A    between atoms: C_10  and  C_7 
ROOT
ATOM      1  N   UNL d   1      59.317  -9.756  32.444  0.00  0.00    -0.200 NA
ATOM      2  C   UNL d   1      59.071  -9.760  33.226  0.00  0.00     0.216 A 
ATOM      3  C   UNL d   1      58.640  -9.792  31.962  0.00  0.00     0.172 A 
ATOM      4  N   UNL d   1      57.980  -9.818  32.456  0.00  0.00    -0.187 NA
ATOM      5  S   UNL d   1      58.244  -9.798  33.241  0.00  0.00     0.054 SA
ENDROOT
BRANCH   3   6
ATOM      6  C   UNL d   1      58.634  -9.800  31.140  0.00  0.00     0.036 A 
ATOM      7  C   UNL d   1      59.340  -9.799  30.722  0.00  0.00     0.003 A 
ATOM      8  C   UNL d   1      59.325  -9.807  29.895  0.00  0.00     0.000 A 
ATOM      9  C   UNL d   1      58.605  -9.816  29.494  0.00  0.00     0.000 A 
ATOM     10  C   UNL d   1      57.895  -9.818  29.914  0.00  0.00     0.000 A 
ATOM     11  C   UNL d   1      57.916  -9.809  30.742  0.00  0.00     0.003 A 
ENDBRANCH   3   6
BRANCH   2  12
ATOM     12  N   UNL d   1      59.563  -9.732  33.886  0.00  0.00    -0.181 NA
ATOM     13  C   UNL d   1      59.709  -9.009  34.255  0.00  0.00     0.281 C 
ATOM     14  O   UNL d   1      59.365  -8.320  33.967  0.00  0.00    -0.265 OA
BRANCH  13  15
ATOM     15  C   UNL d   1      60.198  -8.981  34.909  0.00  0.00     0.063 C 
ATOM     16  C   UNL d   1      60.131  -8.365  35.457  0.00  0.00     0.005 C 
ENDBRANCH  13  15
ENDBRANCH   2  12
TORSDOF 3
ENDMDL
