MODEL 1
REMARK VINA RESULT:      19.7      0.000      0.000
REMARK  5 active torsions:
REMARK  status: ('A' for Active; 'I' for Inactive)
REMARK    1  A    between atoms: S_2  and  C_1 
REMARK    2  A    between atoms: N_3  and  C_1 
REMARK    3  A    between atoms: C_4  and  C_1 
REMARK    4  A    between atoms: C_6  and  S_2 
REMARK       I    between atoms: C_5  and  N_3 
REMARK    5  A    between atoms: C_9  and  C_5 
ROOT
ATOM      1  C   UNL d   1      46.207 -17.851  43.801  0.00  0.00     0.193 C 
ENDROOT
BRANCH   1   2
ATOM      2  S   UNL d   1      46.307 -18.221  43.096  0.00  0.00     0.228 S 
ATOM      3  O   UNL d   1      46.533 -17.512  42.734  0.00  0.00    -0.216 OA
ATOM      4  O   UNL d   1      46.107 -18.847  43.416  0.00  0.00    -0.216 OA
BRANCH   2   5
ATOM      5  C   UNL d   1      46.384 -18.573  42.499  0.00  0.00     0.090 A 
ATOM      6  C   UNL d   1      46.332 -18.191  41.739  0.00  0.00     0.012 A 
ATOM      7  C   UNL d   1      46.429 -18.642  41.020  0.00  0.00     0.012 A 
ATOM      8  C   UNL d   1      46.579 -19.471  41.064  0.00  0.00     0.058 A 
ATOM      9  C   UNL d   1      46.631 -19.851  41.804  0.00  0.00     0.012 A 
ATOM     10 CL   UNL d   1      46.646 -19.778  40.523  0.00  0.00    -0.082 Cl
ATOM     11  C   UNL d   1      46.533 -19.400  42.524  0.00  0.00     0.012 A 
ENDBRANCH   2   5
ENDBRANCH   1   2
BRANCH   1  12
ATOM     12  N   UNL d   1      46.358 -17.015  43.866  0.00  0.00    -0.195 NA
ATOM     13  C   UNL d   1      45.831 -16.474  44.266  0.00  0.00     0.280 C 
ATOM     14  O   UNL d   1      45.099 -16.795  44.627  0.00  0.00    -0.265 OA
BRANCH  13  15
ATOM     15  C   UNL d   1      45.861 -15.761  44.378  0.00  0.00     0.058 A 
ATOM     16  C   UNL d   1      45.134 -15.495  44.659  0.00  0.00     0.005 A 
ATOM     17  C   UNL d   1      45.018 -14.700  44.832  0.00  0.00     0.000 A 
ATOM     18  C   UNL d   1      45.641 -14.171  44.721  0.00  0.00     0.000 A 
ATOM     19  C   UNL d   1      46.369 -14.437  44.440  0.00  0.00     0.000 A 
ATOM     20  C   UNL d   1      45.500 -13.591  44.866  0.00  0.00     0.000 C 
ATOM     21  C   UNL d   1      46.474 -15.231  44.270  0.00  0.00     0.005 A 
ENDBRANCH  13  15
ENDBRANCH   1  12
BRANCH   1  22
ATOM     22  C   UNL d   1      45.957 -18.306  44.446  0.00  0.00     0.144 C 
ATOM     23 CL   UNL d   1      46.551 -18.688  44.955  0.00  0.00    -0.068 Cl
ATOM     24 CL   UNL d   1      45.135 -18.414  44.631  0.00  0.00    -0.068 Cl
ENDBRANCH   1  22
TORSDOF 5
ENDMDL
