MODEL 1
REMARK VINA RESULT:      92.6      0.000      0.000
REMARK  6 active torsions:
REMARK  status: ('A' for Active; 'I' for Inactive)
REMARK    1  A    between atoms: N_10  and  C_3 
REMARK    2  A    between atoms: C_9  and  C_4 
REMARK    3  A    between atoms: C_20  and  N_13 
REMARK    4  A    between atoms: O_24  and  C_14 
REMARK    5  A    between atoms: O_26  and  C_16 
REMARK    6  A    between atoms: C_25  and  C_20 
ROOT
ATOM      1  N   UNL d   1     -48.956  27.718  34.118  0.00  0.00    -0.196 N 
ATOM      2  C   UNL d   1     -48.884  28.535  34.212  0.00  0.00     0.167 A 
ATOM      3  C   UNL d   1     -49.623  27.417  33.767  0.00  0.00     0.152 A 
ATOM      4  C   UNL d   1     -48.226  28.853  34.559  0.00  0.00     0.055 A 
ATOM      5  N   UNL d   1     -47.701  27.538  34.724  0.00  0.00    -0.163 NA
ATOM      6  C   UNL d   1     -47.629  28.355  34.818  0.00  0.00     0.104 A 
ATOM      7  N   UNL d   1     -49.481  29.034  33.953  0.00  0.00    -0.227 NA
ATOM      8  C   UNL d   1     -50.222  27.900  33.506  0.00  0.00     0.057 A 
ATOM      9  C   UNL d   1     -50.150  28.717  33.600  0.00  0.00     0.086 A 
ATOM     10  C   UNL d   1     -46.969  28.660  35.166  0.00  0.00     0.023 C 
ATOM     11  C   UNL d   1     -50.769  29.232  33.331  0.00  0.00     0.021 C 
ENDROOT
BRANCH   3  12
ATOM     12  N   UNL d   1     -49.697  26.580  33.671  0.00  0.00    -0.286 N 
ATOM     13  C   UNL d   1     -50.528  26.480  33.554  0.00  0.00     0.101 A 
ATOM     14  C   UNL d   1     -50.841  25.705  33.433  0.00  0.00     0.100 A 
ATOM     15  N   UNL d   1     -50.335  25.031  33.429  0.00  0.00    -0.300 N 
ATOM     16  C   UNL d   1     -49.494  25.139  33.548  0.00  0.00     0.100 A 
ATOM     17  C   UNL d   1     -49.178  25.905  33.667  0.00  0.00     0.101 A 
BRANCH  15  18
ATOM     18  C   UNL d   1     -50.660  24.254  33.306  0.00  0.00     0.080 C 
BRANCH  18  19
ATOM     19  C   UNL d   1     -51.476  24.112  33.474  0.00  0.00     0.018 A 
ATOM     20  C   UNL d   1     -51.716  23.381  33.805  0.00  0.00     0.002 A 
ATOM     21  C   UNL d   1     -52.535  23.241  33.973  0.00  0.00     0.000 A 
ATOM     22  C   UNL d   1     -53.101  23.836  33.805  0.00  0.00     0.000 A 
ATOM     23  C   UNL d   1     -52.854  24.571  33.470  0.00  0.00     0.000 A 
ATOM     24  C   UNL d   1     -52.042  24.707  33.306  0.00  0.00     0.002 A 
ENDBRANCH  18  19
ENDBRANCH  15  18
ENDBRANCH   3  12
BRANCH   4  25
ATOM     25  C   UNL d   1     -48.155  29.657  34.651  0.00  0.00     0.007 A 
ATOM     26  C   UNL d   1     -47.652  29.951  35.220  0.00  0.00     0.026 A 
ATOM     27  C   UNL d   1     -47.580  30.768  35.314  0.00  0.00     0.116 A 
ATOM     28  C   UNL d   1     -48.013  31.273  34.837  0.00  0.00     0.116 A 
ATOM     29  C   UNL d   1     -48.508  30.965  34.277  0.00  0.00     0.026 A 
ATOM     30  C   UNL d   1     -48.580  30.152  34.184  0.00  0.00     0.002 A 
BRANCH  27  31
ATOM     31  O   UNL d   1     -47.070  31.082  35.891  0.00  0.00    -0.326 OA
ATOM     32  C   UNL d   1     -47.376  31.616  36.485  0.00  0.00     0.181 C 
ENDBRANCH  27  31
BRANCH  28  33
ATOM     33  O   UNL d   1     -47.939  32.115  34.934  0.00  0.00    -0.326 OA
ATOM     34  C   UNL d   1     -47.624  32.582  34.294  0.00  0.00     0.181 C 
ENDBRANCH  28  33
ENDBRANCH   4  25
TORSDOF 6
ENDMDL
