MODEL 1
REMARK VINA RESULT:      -7.0      0.000      0.000
REMARK  5 active torsions:
REMARK  status: ('A' for Active; 'I' for Inactive)
REMARK    1  A    between atoms: C_2  and  S_1 
REMARK    2  A    between atoms: N_5  and  S_1 
REMARK    3  A    between atoms: C_12  and  N_5 
REMARK    4  A    between atoms: O_16  and  C_8 
REMARK    5  A    between atoms: C_13  and  C_12 
ROOT
ATOM      1  S   UNL d   1     -46.713  12.909  22.957  0.00  0.00     0.286 S 
ATOM      2  O   UNL d   1     -46.513  13.239  23.686  0.00  0.00    -0.198 OA
ATOM      3  O   UNL d   1     -46.913  12.578  22.228  0.00  0.00    -0.198 OA
ENDROOT
BRANCH   1   4
ATOM      4  C   UNL d   1     -47.407  13.355  22.946  0.00  0.00     0.117 A 
ATOM      5  C   UNL d   1     -48.132  12.992  23.101  0.00  0.00     0.027 A 
ATOM      6  C   UNL d   1     -48.826  13.438  23.089  0.00  0.00     0.081 A 
ATOM      7 CL   UNL d   1     -49.553  13.073  23.245  0.00  0.00    -0.080 Cl
ATOM      8  C   UNL d   1     -48.794  14.246  22.923  0.00  0.00     0.105 A 
ATOM      9  C   UNL d   1     -48.070  14.608  22.769  0.00  0.00     0.037 A 
ATOM     10  C   UNL d   1     -47.376  14.162  22.780  0.00  0.00     0.072 A 
ATOM     11 CL   UNL d   1     -46.656  14.516  22.628  0.00  0.00    -0.082 Cl
BRANCH   8  12
ATOM     12  O   UNL d   1     -49.489  14.693  22.912  0.00  0.00    -0.327 OA
ATOM     13  C   UNL d   1     -49.476  15.482  23.149  0.00  0.00     0.181 C 
ENDBRANCH   8  12
ENDBRANCH   1   4
BRANCH   1  14
ATOM     14  N   UNL d   1     -46.019  12.463  22.969  0.00  0.00    -0.155 NA
BRANCH  14  15
ATOM     15  C   UNL d   1     -45.987  11.760  23.400  0.00  0.00     0.131 C 
BRANCH  15  16
ATOM     16  C   UNL d   1     -45.300  11.302  23.393  0.00  0.00     0.101 A 
ATOM     17  N   UNL d   1     -44.597  11.620  23.102  0.00  0.00    -0.242 NA
ATOM     18  C   UNL d   1     -43.910  11.162  23.095  0.00  0.00     0.099 A 
ATOM     19  C   UNL d   1     -43.927  10.388  23.380  0.00  0.00     0.021 A 
ATOM     20  C   UNL d   1     -44.634  10.068  23.673  0.00  0.00     0.003 A 
ATOM     21  C   UNL d   1     -45.320  10.525  23.680  0.00  0.00     0.021 A 
ENDBRANCH  15  16
ENDBRANCH  14  15
ENDBRANCH   1  14
TORSDOF 5
ENDMDL
MODEL 2
REMARK VINA RESULT:      -7.0      1.732      4.810
REMARK  5 active torsions:
REMARK  status: ('A' for Active; 'I' for Inactive)
REMARK    1  A    between atoms: C_2  and  S_1 
REMARK    2  A    between atoms: N_5  and  S_1 
REMARK    3  A    between atoms: C_12  and  N_5 
REMARK    4  A    between atoms: O_16  and  C_8 
REMARK    5  A    between atoms: C_13  and  C_12 
ROOT
ATOM      1  S   UNL d   1     -48.035  13.110  22.936  0.00  0.00     0.286 S 
ATOM      2  O   UNL d   1     -47.944  13.415  23.697  0.00  0.00    -0.198 OA
ATOM      3  O   UNL d   1     -48.125  12.806  22.174  0.00  0.00    -0.198 OA
ENDROOT
BRANCH   1   4
ATOM      4  C   UNL d   1     -47.283  12.774  22.980  0.00  0.00     0.117 A 
ATOM      5  C   UNL d   1     -46.637  13.164  22.646  0.00  0.00     0.027 A 
ATOM      6  C   UNL d   1     -45.885  12.828  22.691  0.00  0.00     0.081 A 
ATOM      7 CL   UNL d   1     -45.237  13.221  22.355  0.00  0.00    -0.080 Cl
ATOM      8  C   UNL d   1     -45.779  12.103  23.070  0.00  0.00     0.105 A 
ATOM      9  C   UNL d   1     -46.425  11.714  23.404  0.00  0.00     0.037 A 
ATOM     10  C   UNL d   1     -47.177  12.050  23.359  0.00  0.00     0.072 A 
ATOM     11 CL   UNL d   1     -47.819  11.668  23.688  0.00  0.00    -0.082 Cl
BRANCH   8  12
ATOM     12  O   UNL d   1     -45.026  11.767  23.115  0.00  0.00    -0.327 OA
ATOM     13  C   UNL d   1     -44.931  11.009  23.426  0.00  0.00     0.181 C 
ENDBRANCH   8  12
ENDBRANCH   1   4
BRANCH   1  14
ATOM     14  N   UNL d   1     -48.787  13.446  22.891  0.00  0.00    -0.155 NA
BRANCH  14  15
ATOM     15  C   UNL d   1     -48.884  14.201  22.570  0.00  0.00     0.131 C 
BRANCH  15  16
ATOM     16  C   UNL d   1     -49.611  14.586  22.633  0.00  0.00     0.101 A 
ATOM     17  N   UNL d   1     -50.251  14.335  22.177  0.00  0.00    -0.242 NA
ATOM     18  C   UNL d   1     -50.978  14.720  22.241  0.00  0.00     0.099 A 
ATOM     19  C   UNL d   1     -51.064  15.356  22.760  0.00  0.00     0.021 A 
ATOM     20  C   UNL d   1     -50.421  15.609  23.218  0.00  0.00     0.003 A 
ATOM     21  C   UNL d   1     -49.695  15.224  23.155  0.00  0.00     0.021 A 
ENDBRANCH  15  16
ENDBRANCH  14  15
ENDBRANCH   1  14
TORSDOF 5
ENDMDL
MODEL 3
REMARK VINA RESULT:      -6.0      1.356      1.888
REMARK  5 active torsions:
REMARK  status: ('A' for Active; 'I' for Inactive)
REMARK    1  A    between atoms: C_2  and  S_1 
REMARK    2  A    between atoms: N_5  and  S_1 
REMARK    3  A    between atoms: C_12  and  N_5 
REMARK    4  A    between atoms: O_16  and  C_8 
REMARK    5  A    between atoms: C_13  and  C_12 
ROOT
ATOM      1  S   UNL d   1     -47.491  13.190  22.739  0.00  0.00     0.286 S 
ATOM      2  O   UNL d   1     -47.354  13.148  23.552  0.00  0.00    -0.198 OA
ATOM      3  O   UNL d   1     -47.629  13.231  21.927  0.00  0.00    -0.198 OA
ENDROOT
BRANCH   1   4
ATOM      4  C   UNL d   1     -48.223  13.544  22.881  0.00  0.00     0.117 A 
ATOM      5  C   UNL d   1     -48.311  14.359  22.789  0.00  0.00     0.027 A 
ATOM      6  C   UNL d   1     -49.042  14.713  22.931  0.00  0.00     0.081 A 
ATOM      7 CL   UNL d   1     -49.129  15.532  22.838  0.00  0.00    -0.080 Cl
ATOM      8  C   UNL d   1     -49.685  14.251  23.166  0.00  0.00     0.105 A 
ATOM      9  C   UNL d   1     -49.596  13.437  23.258  0.00  0.00     0.037 A 
ATOM     10  C   UNL d   1     -48.865  13.083  23.116  0.00  0.00     0.072 A 
ATOM     11 CL   UNL d   1     -48.773  12.276  23.206  0.00  0.00    -0.082 Cl
BRANCH   8  12
ATOM     12  O   UNL d   1     -50.417  14.606  23.308  0.00  0.00    -0.327 OA
ATOM     13  C   UNL d   1     -51.063  14.143  23.527  0.00  0.00     0.181 C 
ENDBRANCH   8  12
ENDBRANCH   1   4
BRANCH   1  14
ATOM     14  N   UNL d   1     -46.760  12.835  22.597  0.00  0.00    -0.155 NA
BRANCH  14  15
ATOM     15  C   UNL d   1     -46.070  13.289  22.620  0.00  0.00     0.131 C 
BRANCH  15  16
ATOM     16  C   UNL d   1     -45.343  12.944  22.437  0.00  0.00     0.101 A 
ATOM     17  N   UNL d   1     -45.104  12.257  22.826  0.00  0.00    -0.242 NA
ATOM     18  C   UNL d   1     -44.377  11.912  22.644  0.00  0.00     0.099 A 
ATOM     19  C   UNL d   1     -43.890  12.254  22.072  0.00  0.00     0.021 A 
ATOM     20  C   UNL d   1     -44.129  12.944  21.680  0.00  0.00     0.003 A 
ATOM     21  C   UNL d   1     -44.856  13.289  21.862  0.00  0.00     0.021 A 
ENDBRANCH  15  16
ENDBRANCH  14  15
ENDBRANCH   1  14
TORSDOF 5
ENDMDL
MODEL 4
REMARK VINA RESULT:      -5.7      1.987      4.267
REMARK  5 active torsions:
REMARK  status: ('A' for Active; 'I' for Inactive)
REMARK    1  A    between atoms: C_2  and  S_1 
REMARK    2  A    between atoms: N_5  and  S_1 
REMARK    3  A    between atoms: C_12  and  N_5 
REMARK    4  A    between atoms: O_16  and  C_8 
REMARK    5  A    between atoms: C_13  and  C_12 
ROOT
ATOM      1  S   UNL d   1     -47.415  12.797  22.932  0.00  0.00     0.286 S 
ATOM      2  O   UNL d   1     -47.595  12.534  22.171  0.00  0.00    -0.198 OA
ATOM      3  O   UNL d   1     -47.235  13.060  23.693  0.00  0.00    -0.198 OA
ENDROOT
BRANCH   1   4
ATOM      4  C   UNL d   1     -46.610  12.770  22.751  0.00  0.00     0.117 A 
ATOM      5  C   UNL d   1     -46.158  12.120  22.980  0.00  0.00     0.027 A 
ATOM      6  C   UNL d   1     -45.353  12.093  22.799  0.00  0.00     0.081 A 
ATOM      7 CL   UNL d   1     -44.900  11.439  23.031  0.00  0.00    -0.080 Cl
ATOM      8  C   UNL d   1     -45.003  12.717  22.389  0.00  0.00     0.105 A 
ATOM      9  C   UNL d   1     -45.455  13.367  22.159  0.00  0.00     0.037 A 
ATOM     10  C   UNL d   1     -46.260  13.394  22.341  0.00  0.00     0.072 A 
ATOM     11 CL   UNL d   1     -46.712  14.035  22.116  0.00  0.00    -0.082 Cl
BRANCH   8  12
ATOM     12  O   UNL d   1     -44.197  12.691  22.207  0.00  0.00    -0.327 OA
ATOM     13  C   UNL d   1     -43.939  12.883  21.448  0.00  0.00     0.181 C 
ENDBRANCH   8  12
ENDBRANCH   1   4
BRANCH   1  14
ATOM     14  N   UNL d   1     -48.219  12.824  23.113  0.00  0.00    -0.155 NA
BRANCH  14  15
ATOM     15  C   UNL d   1     -48.701  12.173  22.951  0.00  0.00     0.131 C 
BRANCH  15  16
ATOM     16  C   UNL d   1     -49.488  12.171  23.197  0.00  0.00     0.101 A 
ATOM     17  N   UNL d   1     -49.843  11.466  23.439  0.00  0.00    -0.242 NA
ATOM     18  C   UNL d   1     -50.630  11.464  23.685  0.00  0.00     0.099 A 
ATOM     19  C   UNL d   1     -51.063  12.167  23.688  0.00  0.00     0.021 A 
ATOM     20  C   UNL d   1     -50.708  12.876  23.445  0.00  0.00     0.003 A 
ATOM     21  C   UNL d   1     -49.921  12.878  23.199  0.00  0.00     0.021 A 
ENDBRANCH  15  16
ENDBRANCH  14  15
ENDBRANCH   1  14
TORSDOF 5
ENDMDL
