MODEL 1
REMARK VINA RESULT:      65.1      0.000      0.000
REMARK  5 active torsions:
REMARK  status: ('A' for Active; 'I' for Inactive)
REMARK    1  A    between atoms: C_4  and  C_1 
REMARK    2  A    between atoms: S_2  and  C_4 
REMARK    3  A    between atoms: C_8  and  S_2 
REMARK    4  A    between atoms: N_5  and  C_3 
REMARK    5  A    between atoms: C_9  and  C_4 
ROOT
ATOM      1  C   UNL d   1      45.978 -17.958  42.502  0.00  0.00     0.128 A 
ATOM      2  C   UNL d   1      45.815 -18.742  42.332  0.00  0.00     0.166 A 
ATOM      3  N   UNL d   1      46.160 -17.431  41.897  0.00  0.00    -0.240 NA
ATOM      4  N   UNL d   1      45.833 -19.006  41.555  0.00  0.00    -0.225 NA
ATOM      5  C   UNL d   1      46.177 -17.700  41.125  0.00  0.00     0.099 A 
ATOM      6  C   UNL d   1      46.016 -18.483  40.947  0.00  0.00     0.101 A 
ATOM      7  C   UNL d   1      46.036 -18.740  40.172  0.00  0.00     0.021 A 
ATOM      8  C   UNL d   1      46.361 -17.173  40.516  0.00  0.00     0.021 A 
ATOM      9  C   UNL d   1      46.216 -18.221  39.571  0.00  0.00     0.002 A 
ATOM     10  C   UNL d   1      46.378 -17.438  39.745  0.00  0.00     0.002 A 
ENDROOT
BRANCH   1  11
ATOM     11  C   UNL d   1      45.961 -17.688  43.274  0.00  0.00     0.129 C 
BRANCH  11  12
ATOM     12  S   UNL d   1      46.017 -16.814  43.412  0.00  0.00     0.213 S 
ATOM     13  O   UNL d   1      46.634 -16.369  42.960  0.00  0.00    -0.217 OA
ATOM     14  O   UNL d   1      46.602 -16.994  42.854  0.00  0.00    -0.217 OA
BRANCH  12  15
ATOM     15  C   UNL d   1      45.596 -16.288  43.898  0.00  0.00     0.088 A 
ATOM     16  C   UNL d   1      45.800 -15.482  43.896  0.00  0.00     0.011 A 
ATOM     17  C   UNL d   1      45.378 -14.964  44.380  0.00  0.00     0.001 A 
ATOM     18  C   UNL d   1      45.571 -14.167  44.386  0.00  0.00     0.000 C 
ATOM     19  C   UNL d   1      44.766 -15.239  44.860  0.00  0.00     0.000 A 
ATOM     20  C   UNL d   1      44.572 -16.048  44.853  0.00  0.00     0.001 A 
ATOM     21  C   UNL d   1      44.993 -16.562  44.369  0.00  0.00     0.011 A 
ENDBRANCH  12  15
ENDBRANCH  11  12
BRANCH  11  22
ATOM     22  C   UNL d   1      45.894 -18.129  44.014  0.00  0.00     0.135 C 
ATOM     23  N   UNL d   1      45.332 -17.996  44.681  0.00  0.00    -0.146 N 
ENDBRANCH  11  22
ENDBRANCH   1  11
BRANCH   2  24
ATOM     24  N   UNL d   1      45.632 -19.266  42.944  0.00  0.00    -0.284 N 
ATOM     25  C   UNL d   1      46.234 -19.521  43.462  0.00  0.00     0.106 A 
ATOM     26  C   UNL d   1      46.039 -20.049  44.077  0.00  0.00     0.118 A 
ATOM     27  C   UNL d   1      46.641 -20.304  44.595  0.00  0.00     0.028 C 
ATOM     28  O   UNL d   1      45.258 -20.318  44.171  0.00  0.00    -0.304 OA
ATOM     29  C   UNL d   1      44.672 -20.058  43.651  0.00  0.00     0.118 A 
ATOM     30  C   UNL d   1      44.851 -19.535  43.039  0.00  0.00     0.106 A 
ATOM     31  C   UNL d   1      43.890 -20.324  43.743  0.00  0.00     0.028 C 
ENDBRANCH   2  24
TORSDOF 5
ENDMDL
MODEL 2
REMARK VINA RESULT:      67.9      1.153      2.980
REMARK  5 active torsions:
REMARK  status: ('A' for Active; 'I' for Inactive)
REMARK    1  A    between atoms: C_4  and  C_1 
REMARK    2  A    between atoms: S_2  and  C_4 
REMARK    3  A    between atoms: C_8  and  S_2 
REMARK    4  A    between atoms: N_5  and  C_3 
REMARK    5  A    between atoms: C_9  and  C_4 
ROOT
ATOM      1  C   UNL d   1      46.028 -17.642  43.222  0.00  0.00     0.128 A 
ATOM      2  C   UNL d   1      45.905 -18.170  42.607  0.00  0.00     0.166 A 
ATOM      3  N   UNL d   1      46.243 -17.917  43.966  0.00  0.00    -0.240 NA
ATOM      4  N   UNL d   1      45.995 -18.975  42.732  0.00  0.00    -0.225 NA
ATOM      5  C   UNL d   1      46.333 -18.721  44.086  0.00  0.00     0.099 A 
ATOM      6  C   UNL d   1      46.211 -19.254  43.476  0.00  0.00     0.101 A 
ATOM      7  C   UNL d   1      46.303 -20.055  43.607  0.00  0.00     0.021 A 
ATOM      8  C   UNL d   1      46.549 -18.998  44.833  0.00  0.00     0.021 A 
ATOM      9  C   UNL d   1      46.516 -20.329  44.344  0.00  0.00     0.002 A 
ATOM     10  C   UNL d   1      46.638 -19.800  44.955  0.00  0.00     0.002 A 
ENDROOT
BRANCH   1  11
ATOM     11  C   UNL d   1      45.939 -16.838  43.102  0.00  0.00     0.129 C 
BRANCH  11  12
ATOM     12  S   UNL d   1      45.737 -16.333  43.803  0.00  0.00     0.213 S 
ATOM     13  O   UNL d   1      45.885 -16.673  44.607  0.00  0.00    -0.217 OA
ATOM     14  O   UNL d   1      46.033 -17.043  44.112  0.00  0.00    -0.217 OA
BRANCH  12  15
ATOM     15  C   UNL d   1      45.423 -15.568  43.879  0.00  0.00     0.088 A 
ATOM     16  C   UNL d   1      45.877 -14.977  44.248  0.00  0.00     0.011 A 
ATOM     17  C   UNL d   1      45.559 -14.219  44.321  0.00  0.00     0.001 A 
ATOM     18  C   UNL d   1      45.999 -13.629  44.682  0.00  0.00     0.000 C 
ATOM     19  C   UNL d   1      44.805 -14.048  44.034  0.00  0.00     0.000 A 
ATOM     20  C   UNL d   1      44.361 -14.648  43.667  0.00  0.00     0.001 A 
ATOM     21  C   UNL d   1      44.679 -15.403  43.596  0.00  0.00     0.011 A 
ENDBRANCH  12  15
ENDBRANCH  11  12
BRANCH  11  22
ATOM     22  C   UNL d   1      46.011 -16.373  42.378  0.00  0.00     0.135 C 
ATOM     23  N   UNL d   1      46.647 -15.803  42.155  0.00  0.00    -0.146 N 
ENDBRANCH  11  22
ENDBRANCH   1  11
BRANCH   2  24
ATOM     24  N   UNL d   1      45.688 -17.888  41.861  0.00  0.00    -0.284 N 
ATOM     25  C   UNL d   1      46.277 -17.743  41.289  0.00  0.00     0.106 A 
ATOM     26  C   UNL d   1      46.049 -17.459  40.539  0.00  0.00     0.118 A 
ATOM     27  C   UNL d   1      46.638 -17.314  39.966  0.00  0.00     0.028 C 
ATOM     28  O   UNL d   1      45.248 -17.322  40.365  0.00  0.00    -0.304 OA
ATOM     29  C   UNL d   1      44.675 -17.469  40.941  0.00  0.00     0.118 A 
ATOM     30  C   UNL d   1      44.887 -17.751  41.687  0.00  0.00     0.106 A 
ATOM     31  C   UNL d   1      43.873 -17.334  40.770  0.00  0.00     0.028 C 
ENDBRANCH   2  24
TORSDOF 5
ENDMDL
