MODEL 1
REMARK VINA RESULT:      44.1      0.000      0.000
REMARK  4 active torsions:
REMARK  status: ('A' for Active; 'I' for Inactive)
REMARK    1  A    between atoms: N_5  and  C_1 
REMARK    2  A    between atoms: C_9  and  C_4 
REMARK    3  A    between atoms: C_8  and  N_5 
REMARK    4  A    between atoms: O_12  and  C_9 
ROOT
ATOM      1  N   UNL d   1     -51.290  26.154  33.696  0.00  0.00    -0.222 NA
ENDROOT
BRANCH   1   2
ATOM      2  C   UNL d   1     -51.662  25.416  33.578  0.00  0.00     0.186 A 
ATOM      3  O   UNL d   1     -51.292  24.687  33.509  0.00  0.00    -0.255 OA
ATOM      4  C   UNL d   1     -51.834  24.100  33.399  0.00  0.00     0.301 A 
ATOM      5  O   UNL d   1     -51.666  23.279  33.306  0.00  0.00    -0.259 OA
ATOM      6  C   UNL d   1     -52.580  24.453  33.395  0.00  0.00     0.067 A 
ATOM      7  C   UNL d   1     -52.473  25.268  33.506  0.00  0.00     0.046 A 
ATOM      8  C   UNL d   1     -53.341  24.149  33.307  0.00  0.00     0.005 A 
ATOM      9  C   UNL d   1     -53.129  25.770  33.527  0.00  0.00     0.004 A 
ATOM     10  C   UNL d   1     -53.888  25.462  33.438  0.00  0.00     0.000 A 
ATOM     11  C   UNL d   1     -53.995  24.647  33.327  0.00  0.00     0.000 A 
ENDBRANCH   1   2
BRANCH   1  12
ATOM     12  C   UNL d   1     -50.450  26.258  33.606  0.00  0.00     0.089 A 
ATOM     13  C   UNL d   1     -50.121  26.964  33.665  0.00  0.00     0.081 A 
ATOM     14  C   UNL d   1     -49.308  27.053  33.576  0.00  0.00     0.007 A 
ATOM     15  C   UNL d   1     -48.842  26.377  33.422  0.00  0.00     0.000 A 
ATOM     16  C   UNL d   1     -49.204  25.642  33.363  0.00  0.00     0.002 A 
ATOM     17  C   UNL d   1     -50.011  25.570  33.453  0.00  0.00     0.019 A 
BRANCH  13  18
ATOM     18  C   UNL d   1     -50.619  27.605  33.818  0.00  0.00     0.297 C 
ATOM     19  O   UNL d   1     -51.430  27.497  33.846  0.00  0.00    -0.259 OA
BRANCH  18  20
ATOM     20  O   UNL d   1     -50.290  28.352  33.941  0.00  0.00    -0.296 OA
ATOM     21  C   UNL d   1     -50.287  28.897  33.310  0.00  0.00     0.185 C 
ENDBRANCH  18  20
ENDBRANCH  13  18
ENDBRANCH   1  12
TORSDOF 4
ENDMDL
