MODEL 1
REMARK VINA RESULT:      -6.1      0.000      0.000
REMARK  3 active torsions:
REMARK  status: ('A' for Active; 'I' for Inactive)
REMARK    1  A    between atoms: C_6  and  C_2 
REMARK    2  A    between atoms: O_7  and  C_6 
REMARK    3  A    between atoms: C_8  and  O_7 
ROOT
ATOM      1  N   UNL d   1     -48.927  12.190  23.141  0.00  0.00    -0.224 NA
ATOM      2  C   UNL d   1     -48.427  12.852  23.131  0.00  0.00     0.188 A 
ATOM      3  N   UNL d   1     -48.904  13.506  23.311  0.00  0.00    -0.224 NA
ATOM      4  C   UNL d   1     -49.682  12.432  23.321  0.00  0.00     0.101 A 
ATOM      5  C   UNL d   1     -49.667  13.252  23.428  0.00  0.00     0.101 A 
ATOM      6  C   UNL d   1     -50.397  12.042  23.410  0.00  0.00     0.021 A 
ATOM      7  C   UNL d   1     -50.368  13.660  23.620  0.00  0.00     0.021 A 
ATOM      8  C   UNL d   1     -51.050  13.242  23.698  0.00  0.00     0.002 A 
ATOM      9  C   UNL d   1     -51.064  12.421  23.592  0.00  0.00     0.002 A 
ENDROOT
BRANCH   2  10
ATOM     10  C   UNL d   1     -47.672  12.640  22.954  0.00  0.00     0.161 C 
BRANCH  10  11
ATOM     11  O   UNL d   1     -47.029  13.121  23.194  0.00  0.00    -0.302 OA
BRANCH  11  12
ATOM     12  C   UNL d   1     -46.281  13.043  22.836  0.00  0.00     0.100 A 
ATOM     13  C   UNL d   1     -45.851  12.353  22.936  0.00  0.00     0.025 A 
ATOM     14  C   UNL d   1     -45.107  12.251  22.593  0.00  0.00     0.002 A 
ATOM     15  C   UNL d   1     -44.815  12.878  22.144  0.00  0.00     0.000 A 
ATOM     16  C   UNL d   1     -45.244  13.572  22.041  0.00  0.00     0.002 A 
ATOM     17  C   UNL d   1     -44.067  12.801  21.786  0.00  0.00     0.000 C 
ATOM     18  C   UNL d   1     -45.985  13.668  22.386  0.00  0.00     0.025 A 
ENDBRANCH  11  12
ENDBRANCH  10  11
ENDBRANCH   2  10
TORSDOF 3
ENDMDL
MODEL 2
REMARK VINA RESULT:      -5.9      1.424      4.662
REMARK  3 active torsions:
REMARK  status: ('A' for Active; 'I' for Inactive)
REMARK    1  A    between atoms: C_6  and  C_2 
REMARK    2  A    between atoms: O_7  and  C_6 
REMARK    3  A    between atoms: C_8  and  O_7 
ROOT
ATOM      1  N   UNL d   1     -46.471  13.873  22.422  0.00  0.00    -0.224 NA
ATOM      2  C   UNL d   1     -47.079  13.587  22.910  0.00  0.00     0.188 A 
ATOM      3  N   UNL d   1     -46.827  12.846  23.183  0.00  0.00    -0.224 NA
ATOM      4  C   UNL d   1     -45.871  13.325  22.399  0.00  0.00     0.101 A 
ATOM      5  C   UNL d   1     -46.093  12.685  22.874  0.00  0.00     0.101 A 
ATOM      6  C   UNL d   1     -45.144  13.295  22.022  0.00  0.00     0.021 A 
ATOM      7  C   UNL d   1     -45.582  12.032  22.958  0.00  0.00     0.021 A 
ATOM      8  C   UNL d   1     -44.877  12.040  22.571  0.00  0.00     0.002 A 
ATOM      9  C   UNL d   1     -44.656  12.680  22.097  0.00  0.00     0.002 A 
ENDROOT
BRANCH   2  10
ATOM     10  C   UNL d   1     -47.687  14.111  22.949  0.00  0.00     0.161 C 
BRANCH  10  11
ATOM     11  O   UNL d   1     -48.469  13.868  22.774  0.00  0.00    -0.302 OA
BRANCH  11  12
ATOM     12  C   UNL d   1     -49.123  14.329  23.006  0.00  0.00     0.100 A 
ATOM     13  C   UNL d   1     -49.729  13.987  23.437  0.00  0.00     0.025 A 
ATOM     14  C   UNL d   1     -50.388  14.422  23.679  0.00  0.00     0.002 A 
ATOM     15  C   UNL d   1     -50.408  15.218  23.466  0.00  0.00     0.000 A 
ATOM     16  C   UNL d   1     -49.800  15.564  23.033  0.00  0.00     0.002 A 
ATOM     17  C   UNL d   1     -51.062  15.679  23.698  0.00  0.00     0.000 C 
ATOM     18  C   UNL d   1     -49.147  15.127  22.795  0.00  0.00     0.025 A 
ENDBRANCH  11  12
ENDBRANCH  10  11
ENDBRANCH   2  10
TORSDOF 3
ENDMDL
MODEL 3
REMARK VINA RESULT:      -5.3      7.768      9.767
REMARK  3 active torsions:
REMARK  status: ('A' for Active; 'I' for Inactive)
REMARK    1  A    between atoms: C_6  and  C_2 
REMARK    2  A    between atoms: O_7  and  C_6 
REMARK    3  A    between atoms: C_8  and  O_7 
ROOT
ATOM      1  N   UNL d   1     -40.387  14.224  19.234  0.00  0.00    -0.224 NA
ATOM      2  C   UNL d   1     -40.043  14.799  18.744  0.00  0.00     0.188 A 
ATOM      3  N   UNL d   1     -40.163  15.527  19.123  0.00  0.00    -0.224 NA
ATOM      4  C   UNL d   1     -40.703  14.588  19.887  0.00  0.00     0.101 A 
ATOM      5  C   UNL d   1     -40.564  15.401  19.818  0.00  0.00     0.101 A 
ATOM      6  C   UNL d   1     -41.104  14.319  20.549  0.00  0.00     0.021 A 
ATOM      7  C   UNL d   1     -40.829  15.922  20.412  0.00  0.00     0.021 A 
ATOM      8  C   UNL d   1     -41.219  15.618  21.046  0.00  0.00     0.002 A 
ATOM      9  C   UNL d   1     -41.358  14.806  21.116  0.00  0.00     0.002 A 
ENDROOT
BRANCH   2  10
ATOM     10  C   UNL d   1     -39.721  14.463  18.089  0.00  0.00     0.161 C 
BRANCH  10  11
ATOM     11  O   UNL d   1     -39.058  14.814  17.715  0.00  0.00    -0.302 OA
BRANCH  11  12
ATOM     12  C   UNL d   1     -38.777  14.527  16.985  0.00  0.00     0.100 A 
ATOM     13  C   UNL d   1     -38.399  13.801  16.952  0.00  0.00     0.025 A 
ATOM     14  C   UNL d   1     -38.111  13.493  16.242  0.00  0.00     0.002 A 
ATOM     15  C   UNL d   1     -38.221  13.952  15.566  0.00  0.00     0.000 A 
ATOM     16  C   UNL d   1     -38.600  14.682  15.596  0.00  0.00     0.002 A 
ATOM     17  C   UNL d   1     -37.940  13.665  14.836  0.00  0.00     0.000 C 
ATOM     18  C   UNL d   1     -38.885  14.983  16.305  0.00  0.00     0.025 A 
ENDBRANCH  11  12
ENDBRANCH  10  11
ENDBRANCH   2  10
TORSDOF 3
ENDMDL
MODEL 4
REMARK VINA RESULT:      -3.8      0.702      1.189
REMARK  3 active torsions:
REMARK  status: ('A' for Active; 'I' for Inactive)
REMARK    1  A    between atoms: C_6  and  C_2 
REMARK    2  A    between atoms: O_7  and  C_6 
REMARK    3  A    between atoms: C_8  and  O_7 
ROOT
ATOM      1  N   UNL d   1     -47.913  12.548  23.375  0.00  0.00    -0.224 NA
ATOM      2  C   UNL d   1     -47.510  13.232  23.131  0.00  0.00     0.188 A 
ATOM      3  N   UNL d   1     -48.090  13.813  23.015  0.00  0.00    -0.224 NA
ATOM      4  C   UNL d   1     -48.709  12.708  23.407  0.00  0.00     0.101 A 
ATOM      5  C   UNL d   1     -48.819  13.496  23.182  0.00  0.00     0.101 A 
ATOM      6  C   UNL d   1     -49.369  12.264  23.605  0.00  0.00     0.021 A 
ATOM      7  C   UNL d   1     -49.587  13.820  23.162  0.00  0.00     0.021 A 
ATOM      8  C   UNL d   1     -50.209  13.352  23.363  0.00  0.00     0.002 A 
ATOM      9  C   UNL d   1     -50.099  12.564  23.588  0.00  0.00     0.002 A 
ENDROOT
BRANCH   2  10
ATOM     10  C   UNL d   1     -46.718  13.101  23.092  0.00  0.00     0.161 C 
BRANCH  10  11
ATOM     11  O   UNL d   1     -46.316  13.150  22.358  0.00  0.00    -0.302 OA
BRANCH  11  12
ATOM     12  C   UNL d   1     -45.534  12.874  22.279  0.00  0.00     0.100 A 
ATOM     13  C   UNL d   1     -45.002  13.286  21.812  0.00  0.00     0.025 A 
ATOM     14  C   UNL d   1     -44.222  13.034  21.717  0.00  0.00     0.002 A 
ATOM     15  C   UNL d   1     -44.002  12.346  22.115  0.00  0.00     0.000 A 
ATOM     16  C   UNL d   1     -44.534  11.930  22.584  0.00  0.00     0.002 A 
ATOM     17  C   UNL d   1     -43.220  12.070  22.036  0.00  0.00     0.000 C 
ATOM     18  C   UNL d   1     -45.309  12.186  22.676  0.00  0.00     0.025 A 
ENDBRANCH  11  12
ENDBRANCH  10  11
ENDBRANCH   2  10
TORSDOF 3
ENDMDL
MODEL 5
REMARK VINA RESULT:      -3.8      1.722      4.863
REMARK  3 active torsions:
REMARK  status: ('A' for Active; 'I' for Inactive)
REMARK    1  A    between atoms: C_6  and  C_2 
REMARK    2  A    between atoms: O_7  and  C_6 
REMARK    3  A    between atoms: C_8  and  O_7 
ROOT
ATOM      1  N   UNL d   1     -45.839  11.868  22.998  0.00  0.00    -0.224 NA
ATOM      2  C   UNL d   1     -46.438  11.437  23.378  0.00  0.00     0.188 A 
ATOM      3  N   UNL d   1     -46.072  10.765  23.698  0.00  0.00    -0.224 NA
ATOM      4  C   UNL d   1     -45.134  11.472  23.083  0.00  0.00     0.101 A 
ATOM      5  C   UNL d   1     -45.280  10.785  23.520  0.00  0.00     0.101 A 
ATOM      6  C   UNL d   1     -44.367  11.619  22.835  0.00  0.00     0.021 A 
ATOM      7  C   UNL d   1     -44.654  10.262  23.696  0.00  0.00     0.021 A 
ATOM      8  C   UNL d   1     -43.916  10.442  23.435  0.00  0.00     0.002 A 
ATOM      9  C   UNL d   1     -43.770  11.129  22.999  0.00  0.00     0.002 A 
ENDROOT
BRANCH   2  10
ATOM     10  C   UNL d   1     -47.147  11.808  23.308  0.00  0.00     0.161 C 
BRANCH  10  11
ATOM     11  O   UNL d   1     -47.833  11.376  23.093  0.00  0.00    -0.302 OA
BRANCH  11  12
ATOM     12  C   UNL d   1     -48.570  11.755  23.012  0.00  0.00     0.100 A 
ATOM     13  C   UNL d   1     -48.904  11.840  22.270  0.00  0.00     0.025 A 
ATOM     14  C   UNL d   1     -49.633  12.211  22.162  0.00  0.00     0.002 A 
ATOM     15  C   UNL d   1     -50.011  12.495  22.838  0.00  0.00     0.000 A 
ATOM     16  C   UNL d   1     -49.677  12.412  23.585  0.00  0.00     0.002 A 
ATOM     17  C   UNL d   1     -50.748  12.874  22.756  0.00  0.00     0.000 C 
ATOM     18  C   UNL d   1     -48.951  12.041  23.687  0.00  0.00     0.025 A 
ENDBRANCH  11  12
ENDBRANCH  10  11
ENDBRANCH   2  10
TORSDOF 3
ENDMDL
MODEL 6
REMARK VINA RESULT:      -3.2      1.265      1.553
REMARK  3 active torsions:
REMARK  status: ('A' for Active; 'I' for Inactive)
REMARK    1  A    between atoms: C_6  and  C_2 
REMARK    2  A    between atoms: O_7  and  C_6 
REMARK    3  A    between atoms: C_8  and  O_7 
ROOT
ATOM      1  N   UNL d   1     -48.826  14.030  21.515  0.00  0.00    -0.224 NA
ATOM      2  C   UNL d   1     -48.375  13.710  22.134  0.00  0.00     0.188 A 
ATOM      3  N   UNL d   1     -48.878  13.671  22.791  0.00  0.00    -0.224 NA
ATOM      4  C   UNL d   1     -49.577  14.180  21.787  0.00  0.00     0.101 A 
ATOM      5  C   UNL d   1     -49.609  13.956  22.582  0.00  0.00     0.101 A 
ATOM      6  C   UNL d   1     -50.254  14.489  21.443  0.00  0.00     0.021 A 
ATOM      7  C   UNL d   1     -50.318  14.046  23.013  0.00  0.00     0.021 A 
ATOM      8  C   UNL d   1     -50.960  14.353  22.639  0.00  0.00     0.002 A 
ATOM      9  C   UNL d   1     -50.928  14.577  21.844  0.00  0.00     0.002 A 
ENDROOT
BRANCH   2  10
ATOM     10  C   UNL d   1     -47.625  13.552  21.891  0.00  0.00     0.161 C 
BRANCH  10  11
ATOM     11  O   UNL d   1     -47.145  13.013  22.317  0.00  0.00    -0.302 OA
BRANCH  11  12
ATOM     12  C   UNL d   1     -46.319  12.999  22.212  0.00  0.00     0.100 A 
ATOM     13  C   UNL d   1     -45.829  13.299  22.796  0.00  0.00     0.025 A 
ATOM     14  C   UNL d   1     -45.008  13.297  22.716  0.00  0.00     0.002 A 
ATOM     15  C   UNL d   1     -44.702  12.979  22.020  0.00  0.00     0.000 A 
ATOM     16  C   UNL d   1     -45.191  12.677  21.432  0.00  0.00     0.002 A 
ATOM     17  C   UNL d   1     -43.876  12.965  21.914  0.00  0.00     0.000 C 
ATOM     18  C   UNL d   1     -46.008  12.682  21.516  0.00  0.00     0.025 A 
ENDBRANCH  11  12
ENDBRANCH  10  11
ENDBRANCH   2  10
TORSDOF 3
ENDMDL
