MODEL 1
REMARK VINA RESULT:      -2.6      0.000      0.000
REMARK  5 active torsions:
REMARK  status: ('A' for Active; 'I' for Inactive)
REMARK    1  A    between atoms: N_4  and  S_1 
REMARK    2  A    between atoms: C_5  and  S_1 
REMARK       I    between atoms: N_2  and  C_3 
REMARK    3  A    between atoms: C_3  and  C_11 
REMARK    4  A    between atoms: C_21  and  N_4 
REMARK    5  A    between atoms: C_12  and  C_13 
ROOT
ATOM      1  C   UNL d   1      31.395  16.745 -24.198  0.00  0.00     0.057 A 
ATOM      2  C   UNL d   1      32.623  17.790 -23.861  0.00  0.00     0.094 A 
ATOM      3  C   UNL d   1      31.562  17.359 -24.717  0.00  0.00     0.006 A 
ATOM      4  C   UNL d   1      31.842  16.651 -23.506  0.00  0.00     0.006 A 
ATOM      5  C   UNL d   1      32.176  17.885 -24.553  0.00  0.00     0.020 A 
ATOM      6  C   UNL d   1      32.456  17.177 -23.342  0.00  0.00     0.020 A 
ENDROOT
BRANCH   2   7
ATOM      7  N   UNL d   1      33.237  18.316 -23.697  0.00  0.00    -0.158 NA
BRANCH   7   8
ATOM      8  S   UNL d   1      33.111  18.963 -23.194  0.00  0.00     0.285 S 
ATOM      9  O   UNL d   1      33.207  18.472 -22.537  0.00  0.00    -0.198 OA
ATOM     10  O   UNL d   1      33.015  19.455 -23.856  0.00  0.00    -0.198 OA
BRANCH   8  11
ATOM     11  C   UNL d   1      32.984  19.616 -22.689  0.00  0.00     0.105 A 
ATOM     12  C   UNL d   1      33.154  19.547 -21.887  0.00  0.00     0.013 A 
ATOM     13  C   UNL d   1      33.030  20.187 -21.388  0.00  0.00    -0.004 A 
ATOM     14  C   UNL d   1      32.736  20.897 -21.687  0.00  0.00    -0.023 A 
ATOM     15  C   UNL d   1      32.568  20.954 -22.492  0.00  0.00    -0.004 A 
ATOM     16  C   UNL d   1      32.689  20.321 -22.995  0.00  0.00     0.013 A 
BRANCH  14  17
ATOM     17  C   UNL d   1      32.605  21.554 -21.191  0.00  0.00     0.019 C 
ATOM     18  C   UNL d   1      32.478  22.208 -20.699  0.00  0.00     0.004 C 
ATOM     19  C   UNL d   1      33.193  21.977 -21.595  0.00  0.00     0.004 C 
ATOM     20  C   UNL d   1      32.019  21.128 -20.791  0.00  0.00     0.004 C 
ENDBRANCH  14  17
ENDBRANCH   8  11
ENDBRANCH   7   8
ENDBRANCH   2   7
BRANCH   1  21
ATOM     21  C   UNL d   1      30.780  16.219 -24.362  0.00  0.00     0.265 C 
ATOM     22  N   UNL d   1      29.990  16.476 -24.278  0.00  0.00    -0.268 N 
ATOM     23  C   UNL d   1      29.825  17.248 -24.034  0.00  0.00     0.108 A 
ATOM     24  C   UNL d   1      29.376  15.950 -24.442  0.00  0.00     0.108 A 
ATOM     25  C   UNL d   1      29.036  17.496 -23.953  0.00  0.00     0.118 A 
ATOM     26  C   UNL d   1      28.869  18.271 -23.708  0.00  0.00     0.028 C 
ATOM     27  O   UNL d   1      28.421  16.970 -24.116  0.00  0.00    -0.304 OA
ATOM     28  C   UNL d   1      28.583  16.197 -24.361  0.00  0.00     0.118 A 
ATOM     29  C   UNL d   1      27.963  15.672 -24.524  0.00  0.00     0.028 C 
ATOM     30  O   UNL d   1      30.947  15.453 -24.604  0.00  0.00    -0.267 OA
ENDBRANCH   1  21
TORSDOF 5
ENDMDL
MODEL 2
REMARK VINA RESULT:      -0.6      1.505      5.639
REMARK  5 active torsions:
REMARK  status: ('A' for Active; 'I' for Inactive)
REMARK    1  A    between atoms: N_4  and  S_1 
REMARK    2  A    between atoms: C_5  and  S_1 
REMARK       I    between atoms: N_2  and  C_3 
REMARK    3  A    between atoms: C_3  and  C_11 
REMARK    4  A    between atoms: C_21  and  N_4 
REMARK    5  A    between atoms: C_12  and  C_13 
ROOT
ATOM      1  C   UNL d   1      33.120  20.449 -21.662  0.00  0.00     0.057 A 
ATOM      2  C   UNL d   1      33.200  19.479 -22.991  0.00  0.00     0.094 A 
ATOM      3  C   UNL d   1      33.200  20.784 -22.407  0.00  0.00     0.006 A 
ATOM      4  C   UNL d   1      33.079  19.626 -21.577  0.00  0.00     0.006 A 
ATOM      5  C   UNL d   1      33.241  20.303 -23.076  0.00  0.00     0.020 A 
ATOM      6  C   UNL d   1      33.120  19.144 -22.246  0.00  0.00     0.020 A 
ENDROOT
BRANCH   2   7
ATOM      7  N   UNL d   1      33.241  18.998 -23.660  0.00  0.00    -0.158 NA
BRANCH   7   8
ATOM      8  S   UNL d   1      32.641  18.447 -23.816  0.00  0.00     0.285 S 
ATOM      9  O   UNL d   1      32.226  19.018 -24.244  0.00  0.00    -0.198 OA
ATOM     10  O   UNL d   1      33.061  17.874 -23.385  0.00  0.00    -0.198 OA
BRANCH   8  11
ATOM     11  C   UNL d   1      32.038  17.890 -23.972  0.00  0.00     0.105 A 
ATOM     12  C   UNL d   1      31.434  18.083 -24.496  0.00  0.00     0.013 A 
ATOM     13  C   UNL d   1      30.840  17.538 -24.651  0.00  0.00    -0.004 A 
ATOM     14  C   UNL d   1      30.847  16.799 -24.285  0.00  0.00    -0.023 A 
ATOM     15  C   UNL d   1      31.457  16.617 -23.762  0.00  0.00    -0.004 A 
ATOM     16  C   UNL d   1      32.052  17.155 -23.602  0.00  0.00     0.013 A 
BRANCH  14  17
ATOM     17  C   UNL d   1      30.250  16.237 -24.434  0.00  0.00     0.019 C 
ATOM     18  C   UNL d   1      29.659  15.677 -24.585  0.00  0.00     0.004 C 
ATOM     19  C   UNL d   1      30.760  15.832 -24.948  0.00  0.00     0.004 C 
ATOM     20  C   UNL d   1      29.746  16.645 -23.920  0.00  0.00     0.004 C 
ENDBRANCH  14  17
ENDBRANCH   8  11
ENDBRANCH   7   8
ENDBRANCH   2   7
BRANCH   1  21
ATOM     21  C   UNL d   1      33.079  20.930 -20.993  0.00  0.00     0.265 C 
ATOM     22  N   UNL d   1      32.880  21.737 -21.082  0.00  0.00    -0.268 N 
ATOM     23  C   UNL d   1      32.727  22.049 -21.830  0.00  0.00     0.108 A 
ATOM     24  C   UNL d   1      32.840  22.218 -20.413  0.00  0.00     0.108 A 
ATOM     25  C   UNL d   1      32.530  22.853 -21.911  0.00  0.00     0.118 A 
ATOM     26  C   UNL d   1      32.375  23.168 -22.662  0.00  0.00     0.028 C 
ATOM     27  O   UNL d   1      32.489  23.334 -21.242  0.00  0.00    -0.304 OA
ATOM     28  C   UNL d   1      32.642  23.025 -20.490  0.00  0.00     0.118 A 
ATOM     29  C   UNL d   1      32.600  23.512 -19.822  0.00  0.00     0.028 C 
ATOM     30  O   UNL d   1      33.232  20.618 -20.250  0.00  0.00    -0.267 OA
ENDBRANCH   1  21
TORSDOF 5
ENDMDL
