MODEL 1
REMARK VINA RESULT:      -3.1      0.000      0.000
REMARK  7 active torsions:
REMARK  status: ('A' for Active; 'I' for Inactive)
REMARK    1  A    between atoms: N_2  and  S_1 
REMARK    2  A    between atoms: C_6  and  S_1 
REMARK    3  A    between atoms: C_3  and  N_2 
REMARK       I    between atoms: C_7  and  N_10 
REMARK    4  A    between atoms: C_17  and  C_7 
REMARK    5  A    between atoms: N_10  and  C_18 
REMARK    6  A    between atoms: C_19  and  C_17 
REMARK    7  A    between atoms: O_27  and  C_20 
ROOT
ATOM      1  C   UNL d   1      31.896  17.121 -23.892  0.00  0.00     0.106 A 
ATOM      2  C   UNL d   1      32.468  17.062 -23.290  0.00  0.00     0.015 A 
ATOM      3  C   UNL d   1      31.758  17.828 -24.278  0.00  0.00     0.015 A 
ATOM      4  C   UNL d   1      32.765  18.459 -23.473  0.00  0.00     0.085 A 
ATOM      5  C   UNL d   1      32.891  17.737 -23.095  0.00  0.00     0.020 A 
ATOM      6  C   UNL d   1      32.196  18.498 -24.065  0.00  0.00     0.020 A 
ENDROOT
BRANCH   1   7
ATOM      7  S   UNL d   1      31.451  16.435 -24.107  0.00  0.00     0.300 S 
ATOM      8  O   UNL d   1      31.941  15.979 -23.584  0.00  0.00    -0.198 OA
ATOM      9  O   UNL d   1      30.984  16.904 -24.613  0.00  0.00    -0.198 OA
BRANCH   7  10
ATOM     10  N   UNL d   1      31.027  15.750 -24.304  0.00  0.00     0.034 NA
BRANCH  10  11
ATOM     11  C   UNL d   1      30.240  15.658 -23.968  0.00  0.00     0.760 A 
ATOM     12  N   UNL d   1      29.590  15.630 -24.482  0.00  0.00    -0.059 NA
ATOM     13  C   UNL d   1      28.830  15.541 -24.162  0.00  0.00     0.101 A 
ATOM     14  C   UNL d   1      28.139  15.509 -24.675  0.00  0.00     0.021 C 
ATOM     15  C   UNL d   1      28.732  15.484 -23.353  0.00  0.00     0.040 A 
ATOM     16  C   UNL d   1      29.387  15.515 -22.876  0.00  0.00     0.101 A 
ATOM     17  N   UNL d   1      30.142  15.602 -23.174  0.00  0.00    -0.059 NA
ATOM     18  C   UNL d   1      29.259  15.453 -22.042  0.00  0.00     0.021 C 
ENDBRANCH  10  11
ENDBRANCH   7  10
ENDBRANCH   1   7
BRANCH   4  19
ATOM     19  N   UNL d   1      33.189  19.143 -23.280  0.00  0.00    -0.208 NA
ATOM     20  C   UNL d   1      32.811  19.776 -22.886  0.00  0.00     0.279 C 
ATOM     21  O   UNL d   1      31.991  19.722 -22.683  0.00  0.00    -0.265 OA
BRANCH  20  22
ATOM     22  C   UNL d   1      33.241  20.451 -22.699  0.00  0.00     0.062 C 
BRANCH  22  23
ATOM     23  C   UNL d   1      33.051  20.907 -21.995  0.00  0.00     0.005 A 
ATOM     24  C   UNL d   1      32.870  21.710 -22.066  0.00  0.00     0.002 A 
ATOM     25  C   UNL d   1      32.689  22.144 -21.393  0.00  0.00     0.024 A 
ATOM     26  C   UNL d   1      32.685  21.796 -20.646  0.00  0.00     0.094 A 
ATOM     27  C   UNL d   1      32.861  21.011 -20.567  0.00  0.00     0.024 A 
ATOM     28  C   UNL d   1      33.044  20.564 -21.231  0.00  0.00     0.002 A 
BRANCH  26  29
ATOM     29  O   UNL d   1      32.493  22.280 -19.974  0.00  0.00    -0.328 OA
ATOM     30  C   UNL d   1      33.057  22.740 -19.584  0.00  0.00     0.181 C 
ENDBRANCH  26  29
ENDBRANCH  22  23
ENDBRANCH  20  22
ENDBRANCH   4  19
TORSDOF 7
ENDMDL
MODEL 2
REMARK VINA RESULT:      -0.7      1.737      6.085
REMARK  7 active torsions:
REMARK  status: ('A' for Active; 'I' for Inactive)
REMARK    1  A    between atoms: N_2  and  S_1 
REMARK    2  A    between atoms: C_6  and  S_1 
REMARK    3  A    between atoms: C_3  and  N_2 
REMARK       I    between atoms: C_7  and  N_10 
REMARK    4  A    between atoms: C_17  and  C_7 
REMARK    5  A    between atoms: N_10  and  C_18 
REMARK    6  A    between atoms: C_19  and  C_17 
REMARK    7  A    between atoms: O_27  and  C_20 
ROOT
ATOM      1  C   UNL d   1      32.867  19.998 -23.076  0.00  0.00     0.106 A 
ATOM      2  C   UNL d   1      32.721  19.852 -23.883  0.00  0.00     0.015 A 
ATOM      3  C   UNL d   1      32.829  19.398 -22.523  0.00  0.00     0.015 A 
ATOM      4  C   UNL d   1      32.496  18.466 -23.563  0.00  0.00     0.085 A 
ATOM      5  C   UNL d   1      32.538  19.085 -24.107  0.00  0.00     0.020 A 
ATOM      6  C   UNL d   1      32.642  18.630 -22.771  0.00  0.00     0.020 A 
ENDROOT
BRANCH   1   7
ATOM      7  S   UNL d   1      33.057  20.783 -22.826  0.00  0.00     0.300 S 
ATOM      8  O   UNL d   1      32.864  21.056 -23.608  0.00  0.00    -0.198 OA
ATOM      9  O   UNL d   1      33.240  20.492 -22.069  0.00  0.00    -0.198 OA
BRANCH   7  10
ATOM     10  N   UNL d   1      33.238  21.561 -22.603  0.00  0.00     0.034 NA
BRANCH  10  11
ATOM     11  C   UNL d   1      32.784  21.907 -21.959  0.00  0.00     0.760 A 
ATOM     12  N   UNL d   1      32.358  22.603 -22.103  0.00  0.00    -0.059 NA
ATOM     13  C   UNL d   1      31.918  22.939 -21.485  0.00  0.00     0.101 A 
ATOM     14  C   UNL d   1      31.468  23.661 -21.610  0.00  0.00     0.021 C 
ATOM     15  C   UNL d   1      31.912  22.584 -20.749  0.00  0.00     0.040 A 
ATOM     16  C   UNL d   1      32.339  21.903 -20.639  0.00  0.00     0.101 A 
ATOM     17  N   UNL d   1      32.776  21.559 -21.237  0.00  0.00    -0.059 NA
ATOM     18  C   UNL d   1      32.316  21.555 -19.868  0.00  0.00     0.021 C 
ENDBRANCH  10  11
ENDBRANCH   7  10
ENDBRANCH   1   7
BRANCH   4  19
ATOM     19  N   UNL d   1      32.311  17.690 -23.784  0.00  0.00    -0.208 NA
ATOM     20  C   UNL d   1      31.517  17.467 -23.916  0.00  0.00     0.279 C 
ATOM     21  O   UNL d   1      30.895  18.033 -23.824  0.00  0.00    -0.265 OA
BRANCH  20  22
ATOM     22  C   UNL d   1      31.344  16.694 -24.136  0.00  0.00     0.062 C 
BRANCH  22  23
ATOM     23  C   UNL d   1      30.553  16.376 -24.027  0.00  0.00     0.005 A 
ATOM     24  C   UNL d   1      29.965  16.547 -24.580  0.00  0.00     0.002 A 
ATOM     25  C   UNL d   1      29.210  16.243 -24.474  0.00  0.00     0.024 A 
ATOM     26  C   UNL d   1      29.025  15.768 -23.827  0.00  0.00     0.094 A 
ATOM     27  C   UNL d   1      29.595  15.595 -23.280  0.00  0.00     0.024 A 
ATOM     28  C   UNL d   1      30.355  15.892 -23.373  0.00  0.00     0.002 A 
BRANCH  26  29
ATOM     29  O   UNL d   1      28.232  15.472 -23.753  0.00  0.00    -0.328 OA
ATOM     30  C   UNL d   1      27.599  15.954 -23.531  0.00  0.00     0.181 C 
ENDBRANCH  26  29
ENDBRANCH  22  23
ENDBRANCH  20  22
ENDBRANCH   4  19
TORSDOF 7
ENDMDL
