MODEL 1
REMARK VINA RESULT:      20.6      0.000      0.000
REMARK  0 active torsions:
REMARK  status: ('A' for Active; 'I' for Inactive)
ROOT
ATOM      1  C   UNL d   1     -54.835-102.296 -37.687  0.00  0.00     0.180 A 
ATOM      2  C   UNL d   1     -54.789-101.469 -37.760  0.00  0.00     0.118 A 
ATOM      3  N   UNL d   1     -54.753-101.118 -38.499  0.00  0.00    -0.241 NA
ATOM      4  N   UNL d   1     -54.863-102.481 -36.883  0.00  0.00    -0.225 NA
ATOM      5  N   UNL d   1     -54.844-102.761 -38.367  0.00  0.00    -0.224 NA
ATOM      6  C   UNL d   1     -54.789-101.151 -36.996  0.00  0.00     0.038 A 
ATOM      7  C   UNL d   1     -54.835-101.773 -36.452  0.00  0.00     0.085 A 
ATOM      8  C   UNL d   1     -54.763-101.590 -39.173  0.00  0.00     0.099 A 
ATOM      9  C   UNL d   1     -54.808-102.410 -39.106  0.00  0.00     0.101 A 
ATOM     10  C   UNL d   1     -54.754-100.369 -36.726  0.00  0.00     0.003 A 
ATOM     11  C   UNL d   1     -54.845-101.619 -35.634  0.00  0.00     0.019 A 
ATOM     12  C   UNL d   1     -54.728-101.244 -39.918  0.00  0.00     0.021 A 
ATOM     13  C   UNL d   1     -54.818-102.876 -39.780  0.00  0.00     0.021 A 
ATOM     14  C   UNL d   1     -54.765-100.217 -35.911  0.00  0.00     0.000 A 
ATOM     15  C   UNL d   1     -54.810-100.838 -35.368  0.00  0.00     0.002 A 
ATOM     16  C   UNL d   1     -54.737-101.711 -40.593  0.00  0.00     0.002 A 
ATOM     17  C   UNL d   1     -54.782-102.531 -40.525  0.00  0.00     0.002 A 
ENDROOT
TORSDOF 0
ENDMDL
