MODEL 1
REMARK VINA RESULT:      26.6      0.000      0.000
REMARK  6 active torsions:
REMARK  status: ('A' for Active; 'I' for Inactive)
REMARK    1  A    between atoms: C_11  and  C_4 
REMARK    2  A    between atoms: N_10  and  C_5 
REMARK    3  A    between atoms: C_16  and  C_9 
REMARK    4  A    between atoms: C_13  and  N_10 
REMARK    5  A    between atoms: C_14  and  C_13 
REMARK    6  A    between atoms: C_21  and  C_16 
ROOT
ATOM      1  N   UNL d   1     -41.577-122.623 -52.175  0.00  0.00    -0.195 N 
ATOM      2  C   UNL d   1     -41.620-122.220 -52.893  0.00  0.00     0.167 A 
ATOM      3  N   UNL d   1     -41.916-123.817 -52.825  0.00  0.00    -0.163 NA
ATOM      4  C   UNL d   1     -41.808-122.615 -53.562  0.00  0.00     0.055 A 
ATOM      5  C   UNL d   1     -41.385-122.206 -51.513  0.00  0.00     0.167 A 
ATOM      6  C   UNL d   1     -41.959-123.414 -53.543  0.00  0.00     0.104 A 
ATOM      7  N   UNL d   1     -41.469-121.421 -52.912  0.00  0.00    -0.227 NA
ATOM      8  C   UNL d   1     -41.236-121.422 -51.521  0.00  0.00     0.058 A 
ATOM      9  C   UNL d   1     -41.279-121.019 -52.240  0.00  0.00     0.086 A 
ATOM     10  C   UNL d   1     -42.149-123.818 -54.212  0.00  0.00     0.023 C 
ENDROOT
BRANCH   5  11
ATOM     11  N   UNL d   1     -41.340-122.622 -50.771  0.00  0.00    -0.224 NA
BRANCH  11  12
ATOM     12  C   UNL d   1     -41.628-123.311 -50.376  0.00  0.00     0.120 C 
BRANCH  12  13
ATOM     13  C   UNL d   1     -42.023-123.253 -49.635  0.00  0.00     0.101 A 
ATOM     14  N   UNL d   1     -42.870-123.188 -49.605  0.00  0.00    -0.242 NA
ATOM     15  C   UNL d   1     -43.259-123.130 -48.857  0.00  0.00     0.099 A 
ATOM     16  C   UNL d   1     -42.808-123.138 -48.140  0.00  0.00     0.021 A 
ATOM     17  C   UNL d   1     -41.958-123.204 -48.178  0.00  0.00     0.003 A 
ATOM     18  C   UNL d   1     -41.568-123.262 -48.926  0.00  0.00     0.021 A 
ENDBRANCH  12  13
ENDBRANCH  11  12
ENDBRANCH   5  11
BRANCH   9  19
ATOM     19  C   UNL d   1     -41.123-120.187 -52.266  0.00  0.00     0.019 C 
BRANCH  19  20
ATOM     20  C   UNL d   1     -41.123-119.722 -51.550  0.00  0.00     0.002 C 
ATOM     21  C   UNL d   1     -41.150-118.884 -51.588  0.00  0.00     0.000 C 
ENDBRANCH  19  20
ENDBRANCH   9  19
BRANCH   4  22
ATOM     22  C   UNL d   1     -41.851-122.218 -54.269  0.00  0.00     0.004 A 
ATOM     23  C   UNL d   1     -41.271-122.328 -54.825  0.00  0.00     0.000 A 
ATOM     24  C   UNL d   1     -41.314-121.931 -55.532  0.00  0.00     0.000 A 
ATOM     25  C   UNL d   1     -41.936-121.424 -55.683  0.00  0.00     0.000 A 
ATOM     26  C   UNL d   1     -42.519-121.312 -55.127  0.00  0.00     0.000 A 
ATOM     27  C   UNL d   1     -42.476-121.715 -54.408  0.00  0.00     0.000 A 
ENDBRANCH   4  22
TORSDOF 6
ENDMDL
