MODEL 1
REMARK VINA RESULT:      -2.8      0.000      0.000
REMARK  1 active torsions:
REMARK  status: ('A' for Active; 'I' for Inactive)
REMARK    1  A    between atoms: C_6  and  C_3 
ROOT
ATOM      1  O   UNL d   1      32.849  20.846 -22.065  0.00  0.00    -0.260 OA
ATOM      2  N   UNL d   1      33.078  20.760 -20.730  0.00  0.00    -0.120 NA
ATOM      3  C   UNL d   1      32.834  21.261 -21.373  0.00  0.00     0.205 A 
ATOM      4  N   UNL d   1      33.239  20.049 -21.037  0.00  0.00    -0.109 NA
ATOM      5  C   UNL d   1      33.119  20.040 -21.835  0.00  0.00     0.262 A 
ATOM      6  S   UNL d   1      33.241  19.385 -22.291  0.00  0.00    -0.029 SA
ENDROOT
BRANCH   3   7
ATOM      7  C   UNL d   1      32.617  22.035 -21.317  0.00  0.00     0.043 A 
ATOM      8  C   UNL d   1      32.150  22.282 -20.667  0.00  0.00     0.004 A 
ATOM      9  C   UNL d   1      31.924  23.072 -20.602  0.00  0.00     0.000 A 
ATOM     10  C   UNL d   1      32.163  23.621 -21.189  0.00  0.00     0.000 A 
ATOM     11  C   UNL d   1      32.622  23.355 -21.821  0.00  0.00     0.000 A 
ATOM     12  C   UNL d   1      32.857  22.575 -21.903  0.00  0.00     0.004 A 
ENDBRANCH   3   7
TORSDOF 1
ENDMDL
MODEL 2
REMARK VINA RESULT:      -2.8      2.094      2.893
REMARK  1 active torsions:
REMARK  status: ('A' for Active; 'I' for Inactive)
REMARK    1  A    between atoms: C_6  and  C_3 
ROOT
ATOM      1  O   UNL d   1      32.947  22.470 -20.310  0.00  0.00    -0.260 OA
ATOM      2  N   UNL d   1      31.854  22.643 -21.094  0.00  0.00    -0.120 NA
ATOM      3  C   UNL d   1      32.541  22.167 -20.938  0.00  0.00     0.205 A 
ATOM      4  N   UNL d   1      31.850  23.227 -20.561  0.00  0.00    -0.109 NA
ATOM      5  C   UNL d   1      32.482  23.175 -20.063  0.00  0.00     0.262 A 
ATOM      6  S   UNL d   1      32.615  23.701 -19.464  0.00  0.00    -0.029 SA
ENDROOT
BRANCH   3   7
ATOM      7  C   UNL d   1      32.768  21.511 -21.346  0.00  0.00     0.043 A 
ATOM      8  C   UNL d   1      32.767  20.768 -20.958  0.00  0.00     0.004 A 
ATOM      9  C   UNL d   1      32.997  20.092 -21.367  0.00  0.00     0.000 A 
ATOM     10  C   UNL d   1      33.232  20.153 -22.170  0.00  0.00     0.000 A 
ATOM     11  C   UNL d   1      33.226  20.894 -22.533  0.00  0.00     0.000 A 
ATOM     12  C   UNL d   1      33.000  21.578 -22.143  0.00  0.00     0.004 A 
ENDBRANCH   3   7
TORSDOF 1
ENDMDL
MODEL 3
REMARK VINA RESULT:      -2.6      2.698      3.199
REMARK  1 active torsions:
REMARK  status: ('A' for Active; 'I' for Inactive)
REMARK    1  A    between atoms: C_6  and  C_3 
ROOT
ATOM      1  O   UNL d   1      32.453  23.597 -18.902  0.00  0.00    -0.260 OA
ATOM      2  N   UNL d   1      33.241  22.499 -19.023  0.00  0.00    -0.120 NA
ATOM      3  C   UNL d   1      32.748  23.062 -19.428  0.00  0.00     0.205 A 
ATOM      4  N   UNL d   1      33.239  22.699 -18.257  0.00  0.00    -0.109 NA
ATOM      5  C   UNL d   1      32.783  23.350 -18.124  0.00  0.00     0.262 A 
ATOM      6  S   UNL d   1      32.683  23.675 -17.391  0.00  0.00    -0.029 SA
ENDROOT
BRANCH   3   7
ATOM      7  C   UNL d   1      32.589  23.073 -20.218  0.00  0.00     0.043 A 
ATOM      8  C   UNL d   1      32.886  22.458 -20.703  0.00  0.00     0.004 A 
ATOM      9  C   UNL d   1      32.728  22.461 -21.511  0.00  0.00     0.000 A 
ATOM     10  C   UNL d   1      32.272  23.083 -21.842  0.00  0.00     0.000 A 
ATOM     11  C   UNL d   1      31.990  23.679 -21.346  0.00  0.00     0.000 A 
ATOM     12  C   UNL d   1      32.136  23.693 -20.540  0.00  0.00     0.004 A 
ENDBRANCH   3   7
TORSDOF 1
ENDMDL
MODEL 4
REMARK VINA RESULT:      -2.5      3.606      5.445
REMARK  1 active torsions:
REMARK  status: ('A' for Active; 'I' for Inactive)
REMARK    1  A    between atoms: C_6  and  C_3 
ROOT
ATOM      1  O   UNL d   1      32.718  18.143 -22.765  0.00  0.00    -0.260 OA
ATOM      2  N   UNL d   1      32.645  18.349 -24.104  0.00  0.00    -0.120 NA
ATOM      3  C   UNL d   1      32.526  17.797 -23.468  0.00  0.00     0.205 A 
ATOM      4  N   UNL d   1      32.908  19.022 -23.781  0.00  0.00    -0.109 NA
ATOM      5  C   UNL d   1      32.971  18.959 -22.980  0.00  0.00     0.262 A 
ATOM      6  S   UNL d   1      33.226  19.564 -22.509  0.00  0.00    -0.029 SA
ENDROOT
BRANCH   3   7
ATOM      7  C   UNL d   1      32.262  17.039 -23.539  0.00  0.00     0.043 A 
ATOM      8  C   UNL d   1      31.451  16.903 -23.700  0.00  0.00     0.004 A 
ATOM      9  C   UNL d   1      31.172  16.132 -23.774  0.00  0.00     0.000 A 
ATOM     10  C   UNL d   1      31.703  15.489 -23.688  0.00  0.00     0.000 A 
ATOM     11  C   UNL d   1      32.498  15.646 -23.530  0.00  0.00     0.000 A 
ATOM     12  C   UNL d   1      32.794  16.405 -23.452  0.00  0.00     0.004 A 
ENDBRANCH   3   7
TORSDOF 1
ENDMDL
MODEL 5
REMARK VINA RESULT:      -1.9      5.742      6.598
REMARK  1 active torsions:
REMARK  status: ('A' for Active; 'I' for Inactive)
REMARK    1  A    between atoms: C_6  and  C_3 
ROOT
ATOM      1  O   UNL d   1      31.363  16.831 -23.434  0.00  0.00    -0.260 OA
ATOM      2  N   UNL d   1      31.485  15.682 -24.144  0.00  0.00    -0.120 NA
ATOM      3  C   UNL d   1      30.958  16.191 -23.713  0.00  0.00     0.205 A 
ATOM      4  N   UNL d   1      32.201  16.017 -24.124  0.00  0.00    -0.109 NA
ATOM      5  C   UNL d   1      32.190  16.710 -23.711  0.00  0.00     0.262 A 
ATOM      6  S   UNL d   1      32.846  17.169 -23.603  0.00  0.00    -0.029 SA
ENDROOT
BRANCH   3   7
ATOM      7  C   UNL d   1      30.172  16.068 -23.590  0.00  0.00     0.043 A 
ATOM      8  C   UNL d   1      29.616  16.458 -24.081  0.00  0.00     0.004 A 
ATOM      9  C   UNL d   1      28.810  16.338 -23.963  0.00  0.00     0.000 A 
ATOM     10  C   UNL d   1      28.552  15.826 -23.351  0.00  0.00     0.000 A 
ATOM     11  C   UNL d   1      29.117  15.452 -22.879  0.00  0.00     0.000 A 
ATOM     12  C   UNL d   1      29.922  15.558 -22.981  0.00  0.00     0.004 A 
ENDBRANCH   3   7
TORSDOF 1
ENDMDL
