MODEL 1
REMARK VINA RESULT:       8.9      0.000      0.000
REMARK  2 active torsions:
REMARK  status: ('A' for Active; 'I' for Inactive)
REMARK    1  A    between atoms: C_5  and  C_1 
REMARK    2  A    between atoms: N_7  and  C_3 
REMARK       I    between atoms: C_8  and  N_7 
ROOT
ATOM      1  C   UNL d   1     -51.131  25.265  33.333  0.00  0.00     0.231 A 
ATOM      2  O   UNL d   1     -51.877  24.908  33.311  0.00  0.00    -0.252 OA
ATOM      3  C   UNL d   1     -51.766  24.092  33.329  0.00  0.00     0.297 A 
ATOM      4  N   UNL d   1     -50.572  24.668  33.365  0.00  0.00    -0.117 NA
ATOM      5  N   UNL d   1     -50.963  23.945  33.362  0.00  0.00    -0.101 NA
ENDROOT
BRANCH   1   6
ATOM      6  C   UNL d   1     -50.988  26.080  33.325  0.00  0.00     0.168 A 
ATOM      7  O   UNL d   1     -51.621  26.602  33.314  0.00  0.00    -0.297 OA
ATOM      8  C   UNL d   1     -51.480  27.405  33.306  0.00  0.00     0.149 A 
ATOM      9  C   UNL d   1     -50.712  27.691  33.309  0.00  0.00     0.149 A 
ATOM     10  O   UNL d   1     -50.073  27.178  33.320  0.00  0.00    -0.299 OA
ATOM     11  C   UNL d   1     -50.213  26.371  33.328  0.00  0.00     0.151 A 
ENDBRANCH   1   6
BRANCH   3  12
ATOM     12  N   UNL d   1     -52.368  23.530  33.315  0.00  0.00    -0.165 NA
ATOM     13  C   UNL d   1     -53.148  23.761  33.351  0.00  0.00     0.282 C 
ATOM     14  O   UNL d   1     -53.348  24.567  33.402  0.00  0.00    -0.265 OA
ATOM     15  C   UNL d   1     -53.751  23.196  33.337  0.00  0.00     0.068 C 
ENDBRANCH   3  12
TORSDOF 2
ENDMDL
