MODEL 1
REMARK VINA RESULT:     126.8      0.000      0.000
REMARK  2 active torsions:
REMARK  status: ('A' for Active; 'I' for Inactive)
REMARK    1  A    between atoms: N_10  and  C_3 
REMARK    2  A    between atoms: C_12  and  C_5 
ROOT
ATOM      1  N   UNL d   1      59.138  47.701  50.410  0.00  0.00    -0.196 N 
ATOM      2  C   UNL d   1      58.549  48.231  50.657  0.00  0.00     0.167 A 
ATOM      3  C   UNL d   1      59.910  47.816  50.664  0.00  0.00     0.152 A 
ATOM      4  N   UNL d   1      58.174  46.979  49.679  0.00  0.00    -0.163 NA
ATOM      5  C   UNL d   1      57.782  48.136  50.418  0.00  0.00     0.055 A 
ATOM      6  N   UNL d   1      58.746  48.864  51.153  0.00  0.00    -0.227 NA
ATOM      7  C   UNL d   1      60.107  48.439  51.153  0.00  0.00     0.052 A 
ATOM      8  C   UNL d   1      57.588  47.505  49.925  0.00  0.00     0.104 A 
ATOM      9  C   UNL d   1      59.521  48.966  51.399  0.00  0.00     0.086 A 
ATOM     10  C   UNL d   1      60.892  48.537  51.398  0.00  0.00     0.004 A 
ATOM     11  C   UNL d   1      56.827  47.399  49.679  0.00  0.00     0.023 C 
ATOM     12  C   UNL d   1      59.715  49.597  51.892  0.00  0.00     0.019 A 
ATOM     13  C   UNL d   1      61.085  49.179  51.899  0.00  0.00     0.000 A 
ATOM     14  C   UNL d   1      60.500  49.705  52.144  0.00  0.00     0.002 A 
ENDROOT
BRANCH   3  15
ATOM     15  N   UNL d   1      60.511  47.280  50.415  0.00  0.00    -0.286 N 
ATOM     16  C   UNL d   1      61.007  47.482  49.769  0.00  0.00     0.101 A 
ATOM     17  C   UNL d   1      61.613  46.941  49.518  0.00  0.00     0.100 A 
ATOM     18  N   UNL d   1      61.716  46.210  49.913  0.00  0.00    -0.299 N 
ATOM     19  C   UNL d   1      61.219  46.005  50.562  0.00  0.00     0.100 A 
ATOM     20  C   UNL d   1      62.322  45.676  49.656  0.00  0.00     0.100 C 
ATOM     21  C   UNL d   1      60.610  46.540  50.820  0.00  0.00     0.101 A 
ENDBRANCH   3  15
BRANCH   5  22
ATOM     22  C   UNL d   1      57.197  48.662  50.664  0.00  0.00     0.004 A 
ATOM     23  C   UNL d   1      56.953  48.656  51.441  0.00  0.00     0.000 A 
ATOM     24  C   UNL d   1      56.368  49.183  51.686  0.00  0.00     0.000 A 
ATOM     25  C   UNL d   1      56.035  49.708  51.151  0.00  0.00     0.000 A 
ATOM     26  C   UNL d   1      56.287  49.706  50.371  0.00  0.00     0.000 A 
ATOM     27  C   UNL d   1      56.872  49.180  50.125  0.00  0.00     0.000 A 
ENDBRANCH   5  22
TORSDOF 2
ENDMDL
