MODEL 1
REMARK VINA RESULT:      19.5      0.000      0.000
REMARK  2 active torsions:
REMARK  status: ('A' for Active; 'I' for Inactive)
REMARK    1  A    between atoms: C_7  and  C_1 
REMARK    2  A    between atoms: C_9  and  C_1 
ROOT
ATOM      1  C   UNL d   1     -51.134  25.158  33.438  0.00  0.00     0.240 A 
ATOM      2  S   UNL d   1     -51.366  24.372  33.442  0.00  0.00    -0.043 SA
ATOM      3  N   UNL d   1     -51.706  25.751  33.395  0.00  0.00    -0.199 NA
ATOM      4  C   UNL d   1     -52.164  24.174  33.405  0.00  0.00     0.181 A 
ATOM      5  N   UNL d   1     -52.736  24.767  33.363  0.00  0.00    -0.237 N 
ATOM      6  C   UNL d   1     -52.510  25.558  33.358  0.00  0.00     0.352 A 
ATOM      7  N   UNL d   1     -52.390  23.382  33.411  0.00  0.00    -0.221 NA
ATOM      8  O   UNL d   1     -53.076  26.157  33.316  0.00  0.00    -0.244 OA
ATOM      9  C   UNL d   1     -53.534  24.568  33.326  0.00  0.00     0.088 A 
ATOM     10  C   UNL d   1     -53.182  23.189  33.374  0.00  0.00     0.103 A 
ATOM     11  C   UNL d   1     -53.754  23.782  33.331  0.00  0.00     0.040 A 
ENDROOT
BRANCH   1  12
ATOM     12  C   UNL d   1     -50.562  24.565  33.480  0.00  0.00     0.429 C 
ATOM     13  F   UNL d   1     -50.051  24.017  33.514  0.00  0.00    -0.167 F 
ATOM     14  F   UNL d   1     -50.652  23.730  33.308  0.00  0.00    -0.167 F 
ATOM     15  F   UNL d   1     -49.741  24.620  33.701  0.00  0.00    -0.167 F 
ENDBRANCH   1  12
BRANCH   1  16
ATOM     16  C   UNL d   1     -50.914  25.955  33.432  0.00  0.00     0.016 A 
ATOM     17  C   UNL d   1     -50.110  26.160  33.487  0.00  0.00    -0.001 A 
ATOM     18  C   UNL d   1     -49.888  26.955  33.482  0.00  0.00    -0.000 A 
ATOM     19  C   UNL d   1     -50.470  27.547  33.421  0.00  0.00    -0.000 A 
ATOM     20  C   UNL d   1     -51.267  27.331  33.366  0.00  0.00    -0.000 A 
ATOM     21  C   UNL d   1     -51.494  26.539  33.371  0.00  0.00    -0.001 A 
ENDBRANCH   1  16
TORSDOF 2
ENDMDL
MODEL 2
REMARK VINA RESULT:      19.6      1.703      2.058
REMARK  2 active torsions:
REMARK  status: ('A' for Active; 'I' for Inactive)
REMARK    1  A    between atoms: C_7  and  C_1 
REMARK    2  A    between atoms: C_9  and  C_1 
ROOT
ATOM      1  C   UNL d   1     -51.653  25.799  33.358  0.00  0.00     0.240 A 
ATOM      2  S   UNL d   1     -52.440  25.574  33.370  0.00  0.00    -0.043 SA
ATOM      3  N   UNL d   1     -51.065  25.220  33.338  0.00  0.00    -0.199 NA
ATOM      4  C   UNL d   1     -52.646  24.777  33.364  0.00  0.00     0.181 A 
ATOM      5  N   UNL d   1     -52.058  24.199  33.344  0.00  0.00    -0.237 N 
ATOM      6  C   UNL d   1     -51.265  24.417  33.331  0.00  0.00     0.352 A 
ATOM      7  N   UNL d   1     -53.440  24.558  33.377  0.00  0.00    -0.221 NA
ATOM      8  O   UNL d   1     -50.671  23.844  33.312  0.00  0.00    -0.244 OA
ATOM      9  C   UNL d   1     -52.264  23.401  33.338  0.00  0.00     0.088 A 
ATOM     10  C   UNL d   1     -53.640  23.767  33.370  0.00  0.00     0.103 A 
ATOM     11  C   UNL d   1     -53.052  23.189  33.351  0.00  0.00     0.040 A 
ENDROOT
BRANCH   1  12
ATOM     12  C   UNL d   1     -52.240  26.377  33.377  0.00  0.00     0.429 C 
ATOM     13  F   UNL d   1     -52.766  26.912  33.397  0.00  0.00    -0.167 F 
ATOM     14  F   UNL d   1     -52.146  27.224  33.472  0.00  0.00    -0.167 F 
ATOM     15  F   UNL d   1     -53.085  26.292  33.310  0.00  0.00    -0.167 F 
ENDBRANCH   1  12
BRANCH   1  16
ATOM     16  C   UNL d   1     -50.853  26.011  33.344  0.00  0.00     0.016 A 
ATOM     17  C   UNL d   1     -50.642  26.815  33.351  0.00  0.00    -0.001 A 
ATOM     18  C   UNL d   1     -49.845  27.030  33.337  0.00  0.00    -0.000 A 
ATOM     19  C   UNL d   1     -49.257  26.440  33.318  0.00  0.00    -0.000 A 
ATOM     20  C   UNL d   1     -49.481  25.643  33.312  0.00  0.00    -0.000 A 
ATOM     21  C   UNL d   1     -50.274  25.423  33.325  0.00  0.00    -0.001 A 
ENDBRANCH   1  16
TORSDOF 2
ENDMDL
