MODEL 1
REMARK VINA RESULT:      28.1      0.000      0.000
REMARK  3 active torsions:
REMARK  status: ('A' for Active; 'I' for Inactive)
REMARK    1  A    between atoms: N_2  and  C_1 
REMARK    2  A    between atoms: N_3  and  C_1 
REMARK       I    between atoms: C_4  and  N_3 
REMARK    3  A    between atoms: C_9  and  C_4 
ROOT
ATOM      1  C   UNL d   1      24.118  12.464  -2.104  0.00  0.00     0.209 C 
ATOM      2  S   UNL d   1      24.627  11.833  -2.002  0.00  0.00    -0.038 SA
ENDROOT
BRANCH   1   3
ATOM      3  N   UNL d   1      23.592  12.661  -1.509  0.00  0.00    -0.282 N 
ATOM      4  C   UNL d   1      23.712  13.346  -1.062  0.00  0.00     0.066 A 
ATOM      5  C   UNL d   1      23.177  13.538  -0.465  0.00  0.00     0.016 A 
ATOM      6  C   UNL d   1      24.363  13.834  -1.212  0.00  0.00     0.018 A 
ATOM      7  C   UNL d   1      23.289  14.216  -0.015  0.00  0.00     0.001 A 
ATOM      8  C   UNL d   1      22.518  13.045  -0.313  0.00  0.00     0.003 A 
ATOM      9  C   UNL d   1      23.932  14.697  -0.164  0.00  0.00     0.000 A 
ATOM     10  C   UNL d   1      24.471  14.506  -0.764  0.00  0.00     0.002 A 
ATOM     11  C   UNL d   1      22.402  12.366  -0.759  0.00  0.00     0.019 A 
ATOM     12  C   UNL d   1      22.933  12.168  -1.357  0.00  0.00     0.082 A 
ENDBRANCH   1   3
BRANCH   1  13
ATOM     13  N   UNL d   1      24.142  12.894  -2.808  0.00  0.00    -0.180 NA
ATOM     14  C   UNL d   1      24.454  12.545  -3.495  0.00  0.00     0.281 C 
ATOM     15  O   UNL d   1      24.733  11.787  -3.472  0.00  0.00    -0.265 OA
BRANCH  14  16
ATOM     16  C   UNL d   1      24.471  12.989  -4.192  0.00  0.00     0.058 A 
ATOM     17  C   UNL d   1      24.553  12.634  -4.935  0.00  0.00     0.005 A 
ATOM     18  C   UNL d   1      24.569  13.077  -5.622  0.00  0.00     0.000 A 
ATOM     19  C   UNL d   1      24.500  13.910  -5.574  0.00  0.00     0.000 A 
ATOM     20  C   UNL d   1      24.419  14.267  -4.844  0.00  0.00     0.000 A 
ATOM     21  C   UNL d   1      24.402  13.818  -4.133  0.00  0.00     0.005 A 
ENDBRANCH  14  16
ENDBRANCH   1  13
TORSDOF 3
ENDMDL
MODEL 2
REMARK VINA RESULT:      28.8      9.571     10.994
REMARK  3 active torsions:
REMARK  status: ('A' for Active; 'I' for Inactive)
REMARK    1  A    between atoms: N_2  and  C_1 
REMARK    2  A    between atoms: N_3  and  C_1 
REMARK       I    between atoms: C_4  and  N_3 
REMARK    3  A    between atoms: C_9  and  C_4 
ROOT
ATOM      1  C   UNL d   1      13.313  12.438  -3.344  0.00  0.00     0.209 C 
ATOM      2  S   UNL d   1      12.773  11.825  -3.352  0.00  0.00    -0.038 SA
ENDROOT
BRANCH   1   3
ATOM      3  N   UNL d   1      13.293  13.004  -3.934  0.00  0.00    -0.282 N 
ATOM      4  C   UNL d   1      13.392  12.781  -4.724  0.00  0.00     0.066 A 
ATOM      5  C   UNL d   1      13.370  13.358  -5.313  0.00  0.00     0.016 A 
ATOM      6  C   UNL d   1      13.512  11.987  -4.921  0.00  0.00     0.018 A 
ATOM      7  C   UNL d   1      13.468  13.145  -6.100  0.00  0.00     0.001 A 
ATOM      8  C   UNL d   1      13.249  14.162  -5.113  0.00  0.00     0.003 A 
ATOM      9  C   UNL d   1      13.587  12.361  -6.295  0.00  0.00     0.000 A 
ATOM     10  C   UNL d   1      13.609  11.780  -5.704  0.00  0.00     0.002 A 
ATOM     11  C   UNL d   1      13.151  14.379  -4.328  0.00  0.00     0.019 A 
ATOM     12  C   UNL d   1      13.171  13.808  -3.735  0.00  0.00     0.082 A 
ENDBRANCH   1   3
BRANCH   1  13
ATOM     13  N   UNL d   1      13.872  12.479  -2.739  0.00  0.00    -0.180 NA
ATOM     14  C   UNL d   1      13.703  12.144  -1.996  0.00  0.00     0.281 C 
ATOM     15  O   UNL d   1      12.993  11.780  -1.870  0.00  0.00    -0.265 OA
BRANCH  14  16
ATOM     16  C   UNL d   1      14.274  12.192  -1.401  0.00  0.00     0.058 A 
ATOM     17  C   UNL d   1      14.078  12.114  -0.601  0.00  0.00     0.005 A 
ATOM     18  C   UNL d   1      14.647  12.163  -0.014  0.00  0.00     0.000 A 
ATOM     19  C   UNL d   1      15.446  12.296  -0.228  0.00  0.00     0.000 A 
ATOM     20  C   UNL d   1      15.645  12.374  -1.015  0.00  0.00     0.000 A 
ATOM     21  C   UNL d   1      15.067  12.325  -1.624  0.00  0.00     0.005 A 
ENDBRANCH  14  16
ENDBRANCH   1  13
TORSDOF 3
ENDMDL
