MODEL 1
REMARK VINA RESULT:      39.9      0.000      0.000
REMARK  2 active torsions:
REMARK  status: ('A' for Active; 'I' for Inactive)
REMARK    1  A    between atoms: C_6  and  N_1 
REMARK    2  A    between atoms: C_7  and  C_6 
ROOT
ATOM      1  N   UNL d   1     -56.983 -99.338 -44.130  0.00  0.00    -0.287 N 
ATOM      2  N   UNL d   1     -56.283-100.385 -43.738  0.00  0.00    -0.224 NA
ATOM      3  C   UNL d   1     -57.013-100.008 -43.656  0.00  0.00     0.183 A 
ATOM      4  C   UNL d   1     -56.264 -99.298 -44.492  0.00  0.00     0.083 A 
ATOM      5  C   UNL d   1     -55.826 -99.953 -44.247  0.00  0.00     0.099 A 
ATOM      6  C   UNL d   1     -55.935 -98.755 -45.017  0.00  0.00     0.019 A 
ATOM      7  C   UNL d   1     -55.058-100.065 -44.527  0.00  0.00     0.021 A 
ATOM      8  C   UNL d   1     -55.167 -98.866 -45.299  0.00  0.00     0.002 A 
ATOM      9  C   UNL d   1     -54.729 -99.520 -45.054  0.00  0.00     0.002 A 
ENDROOT
BRANCH   1  10
ATOM     10  C   UNL d   1     -57.683 -98.890 -44.111  0.00  0.00     0.082 C 
BRANCH  10  11
ATOM     11  C   UNL d   1     -58.216 -98.939 -44.728  0.00  0.00     0.018 A 
ATOM     12  C   UNL d   1     -57.947 -99.117 -45.487  0.00  0.00     0.002 A 
ATOM     13  C   UNL d   1     -58.481 -99.167 -46.114  0.00  0.00     0.011 A 
ATOM     14  C   UNL d   1     -59.285 -99.041 -45.981  0.00  0.00     0.058 A 
ATOM     15  C   UNL d   1     -59.526 -98.868 -45.226  0.00  0.00     0.011 A 
ATOM     16 CL   UNL d   1     -59.792 -99.097 -46.616  0.00  0.00    -0.082 Cl
ATOM     17  C   UNL d   1     -59.020 -98.813 -44.595  0.00  0.00     0.002 A 
ENDBRANCH  10  11
ENDBRANCH   1  10
TORSDOF 2
ENDMDL
MODEL 2
REMARK VINA RESULT:      41.4      1.268      1.885
REMARK  2 active torsions:
REMARK  status: ('A' for Active; 'I' for Inactive)
REMARK    1  A    between atoms: C_6  and  N_1 
REMARK    2  A    between atoms: C_7  and  C_6 
ROOT
ATOM      1  N   UNL d   1     -56.858 -99.346 -44.996  0.00  0.00    -0.287 N 
ATOM      2  N   UNL d   1     -55.603 -98.943 -45.029  0.00  0.00    -0.224 NA
ATOM      3  C   UNL d   1     -56.366 -98.757 -45.286  0.00  0.00     0.183 A 
ATOM      4  C   UNL d   1     -56.421 -99.877 -44.576  0.00  0.00     0.083 A 
ATOM      5  C   UNL d   1     -55.636 -99.625 -44.596  0.00  0.00     0.099 A 
ATOM      6  C   UNL d   1     -56.622-100.566 -44.169  0.00  0.00     0.019 A 
ATOM      7  C   UNL d   1     -55.051-100.061 -44.211  0.00  0.00     0.021 A 
ATOM      8  C   UNL d   1     -56.038-101.003 -43.783  0.00  0.00     0.002 A 
ATOM      9  C   UNL d   1     -55.253-100.751 -43.804  0.00  0.00     0.002 A 
ENDROOT
BRANCH   1  10
ATOM     10  C   UNL d   1     -57.655 -99.242 -45.207  0.00  0.00     0.082 C 
BRANCH  10  11
ATOM     11  C   UNL d   1     -58.228 -99.194 -44.626  0.00  0.00     0.018 A 
ATOM     12  C   UNL d   1     -58.059 -98.808 -43.917  0.00  0.00     0.002 A 
ATOM     13  C   UNL d   1     -58.634 -98.757 -43.328  0.00  0.00     0.011 A 
ATOM     14  C   UNL d   1     -59.379 -99.091 -43.448  0.00  0.00     0.058 A 
ATOM     15  C   UNL d   1     -59.521 -99.466 -44.154  0.00  0.00     0.011 A 
ATOM     16 CL   UNL d   1     -59.929 -99.027 -42.851  0.00  0.00    -0.082 Cl
ATOM     17  C   UNL d   1     -58.972 -99.529 -44.746  0.00  0.00     0.002 A 
ENDBRANCH  10  11
ENDBRANCH   1  10
TORSDOF 2
ENDMDL
