MODEL 1
REMARK VINA RESULT:      -4.5      0.000      0.000
REMARK  5 active torsions:
REMARK  status: ('A' for Active; 'I' for Inactive)
REMARK    1  A    between atoms: C_3  and  C_1 
REMARK    2  A    between atoms: N_2  and  C_11 
REMARK    3  A    between atoms: N_6  and  C_3 
REMARK    4  A    between atoms: C_14  and  C_5 
REMARK    5  A    between atoms: C_10  and  N_7 
ROOT
ATOM      1  C   UNL d   1     -47.875  11.827  22.836  0.00  0.00     0.143 C 
ATOM      2  S   UNL d   1     -48.220  11.100  22.747  0.00  0.00    -0.057 SA
ENDROOT
BRANCH   1   3
ATOM      3  C   UNL d   1     -47.075  11.913  22.857  0.00  0.00     0.126 A 
ATOM      4  O   UNL d   1     -46.553  12.231  22.298  0.00  0.00    -0.305 OA
ATOM      5  C   UNL d   1     -45.788  12.176  22.618  0.00  0.00     0.100 A 
ATOM      6  C   UNL d   1     -45.841  11.843  23.333  0.00  0.00     0.027 A 
ATOM      7  C   UNL d   1     -46.635  11.670  23.503  0.00  0.00     0.029 A 
BRANCH   5   8
ATOM      8  C   UNL d   1     -45.066  12.395  22.327  0.00  0.00     0.023 A 
ATOM      9  C   UNL d   1     -44.386  11.940  22.484  0.00  0.00     0.004 A 
ATOM     10  C   UNL d   1     -43.654  12.177  22.180  0.00  0.00     0.024 A 
ATOM     11  C   UNL d   1     -43.581  12.860  21.721  0.00  0.00     0.127 A 
ATOM     12  C   UNL d   1     -44.277  13.309  21.571  0.00  0.00     0.024 A 
ATOM     13  C   UNL d   1     -44.994  13.079  21.868  0.00  0.00     0.004 A 
BRANCH  11  14
ATOM     14  N   UNL d   1     -42.859  13.079  21.430  0.00  0.00    -0.114 N 
ATOM     15  O   UNL d   1     -42.514  13.831  21.534  0.00  0.00    -0.532 OA
ATOM     16  O   UNL d   1     -42.366  12.592  20.993  0.00  0.00    -0.532 OA
ENDBRANCH  11  14
ENDBRANCH   5   8
ENDBRANCH   1   3
BRANCH   1  17
ATOM     17  N   UNL d   1     -48.362  12.522  22.909  0.00  0.00    -0.291 N 
ATOM     18  C   UNL d   1     -48.558  12.962  22.231  0.00  0.00     0.100 A 
ATOM     19  C   UNL d   1     -49.027  13.635  22.291  0.00  0.00     0.100 A 
ATOM     20  N   UNL d   1     -49.304  13.870  23.036  0.00  0.00    -0.301 N 
ATOM     21  C   UNL d   1     -49.111  13.440  23.694  0.00  0.00     0.100 A 
ATOM     22  C   UNL d   1     -48.639  12.764  23.632  0.00  0.00     0.100 A 
BRANCH  20  23
ATOM     23  C   UNL d   1     -49.773  14.544  23.096  0.00  0.00     0.064 A 
ATOM     24  C   UNL d   1     -50.578  14.456  22.911  0.00  0.00     0.016 A 
ATOM     25  C   UNL d   1     -50.909  13.731  22.676  0.00  0.00     0.002 C 
ATOM     26  C   UNL d   1     -51.064  15.115  22.963  0.00  0.00     0.001 A 
ATOM     27  C   UNL d   1     -50.755  15.856  23.198  0.00  0.00     0.000 A 
ATOM     28  C   UNL d   1     -49.965  15.921  23.374  0.00  0.00     0.002 A 
ATOM     29  C   UNL d   1     -49.476  15.267  23.323  0.00  0.00     0.018 A 
ENDBRANCH  20  23
ENDBRANCH   1  17
TORSDOF 5
ENDMDL
MODEL 2
REMARK VINA RESULT:      -4.4      5.996      9.728
REMARK  5 active torsions:
REMARK  status: ('A' for Active; 'I' for Inactive)
REMARK    1  A    between atoms: C_3  and  C_1 
REMARK    2  A    between atoms: N_2  and  C_11 
REMARK    3  A    between atoms: N_6  and  C_3 
REMARK    4  A    between atoms: C_14  and  C_5 
REMARK    5  A    between atoms: C_10  and  N_7 
ROOT
ATOM      1  C   UNL d   1     -38.725  15.504  19.948  0.00  0.00     0.143 C 
ATOM      2  S   UNL d   1     -38.135  15.887  20.349  0.00  0.00    -0.057 SA
ENDROOT
BRANCH   1   3
ATOM      3  C   UNL d   1     -39.415  15.301  20.309  0.00  0.00     0.126 A 
ATOM      4  O   UNL d   1     -39.833  14.585  20.306  0.00  0.00    -0.305 OA
ATOM      5  C   UNL d   1     -40.509  14.694  20.776  0.00  0.00     0.100 A 
ATOM      6  C   UNL d   1     -40.504  15.436  21.050  0.00  0.00     0.027 A 
ATOM      7  C   UNL d   1     -39.830  15.832  20.771  0.00  0.00     0.029 A 
BRANCH   5   8
ATOM      8  C   UNL d   1     -41.115  14.196  20.972  0.00  0.00     0.023 A 
ATOM      9  C   UNL d   1     -41.063  13.705  21.644  0.00  0.00     0.004 A 
ATOM     10  C   UNL d   1     -41.690  13.200  21.833  0.00  0.00     0.024 A 
ATOM     11  C   UNL d   1     -42.372  13.171  21.367  0.00  0.00     0.127 A 
ATOM     12  C   UNL d   1     -42.409  13.673  20.692  0.00  0.00     0.024 A 
ATOM     13  C   UNL d   1     -41.797  14.167  20.506  0.00  0.00     0.004 A 
BRANCH  11  14
ATOM     14  N   UNL d   1     -42.978  12.672  21.564  0.00  0.00    -0.114 N 
ATOM     15  O   UNL d   1     -43.787  12.845  21.464  0.00  0.00    -0.532 OA
ATOM     16  O   UNL d   1     -42.879  11.927  21.889  0.00  0.00    -0.532 OA
ENDBRANCH  11  14
ENDBRANCH   5   8
ENDBRANCH   1   3
BRANCH   1  17
ATOM     17  N   UNL d   1     -38.622  15.308  19.125  0.00  0.00    -0.291 N 
ATOM     18  C   UNL d   1     -39.005  15.761  18.542  0.00  0.00     0.100 A 
ATOM     19  C   UNL d   1     -38.912  15.580  17.745  0.00  0.00     0.100 A 
ATOM     20  N   UNL d   1     -38.431  14.939  17.529  0.00  0.00    -0.301 N 
ATOM     21  C   UNL d   1     -38.060  14.501  18.098  0.00  0.00     0.100 A 
ATOM     22  C   UNL d   1     -38.155  14.685  18.899  0.00  0.00     0.100 A 
BRANCH  20  23
ATOM     23  C   UNL d   1     -38.339  14.758  16.731  0.00  0.00     0.064 A 
ATOM     24  C   UNL d   1     -38.587  14.005  16.487  0.00  0.00     0.016 A 
ATOM     25  C   UNL d   1     -38.915  13.448  17.010  0.00  0.00     0.002 C 
ATOM     26  C   UNL d   1     -38.504  13.803  15.696  0.00  0.00     0.001 A 
ATOM     27  C   UNL d   1     -38.176  14.346  15.150  0.00  0.00     0.000 A 
ATOM     28  C   UNL d   1     -37.940  15.079  15.408  0.00  0.00     0.002 A 
ATOM     29  C   UNL d   1     -38.021  15.284  16.196  0.00  0.00     0.018 A 
ENDBRANCH  20  23
ENDBRANCH   1  17
TORSDOF 5
ENDMDL
MODEL 3
REMARK VINA RESULT:      -3.6      0.898      1.326
REMARK  5 active torsions:
REMARK  status: ('A' for Active; 'I' for Inactive)
REMARK    1  A    between atoms: C_3  and  C_1 
REMARK    2  A    between atoms: N_2  and  C_11 
REMARK    3  A    between atoms: N_6  and  C_3 
REMARK    4  A    between atoms: C_14  and  C_5 
REMARK    5  A    between atoms: C_10  and  N_7 
ROOT
ATOM      1  C   UNL d   1     -46.793  11.672  23.340  0.00  0.00     0.143 C 
ATOM      2  S   UNL d   1     -47.070  11.001  23.698  0.00  0.00    -0.057 SA
ENDROOT
BRANCH   1   3
ATOM      3  C   UNL d   1     -46.023  11.742  23.117  0.00  0.00     0.126 A 
ATOM      4  O   UNL d   1     -45.659  12.276  22.597  0.00  0.00    -0.305 OA
ATOM      5  C   UNL d   1     -44.851  12.088  22.578  0.00  0.00     0.100 A 
ATOM      6  C   UNL d   1     -44.727  11.473  23.060  0.00  0.00     0.027 A 
ATOM      7  C   UNL d   1     -45.445  11.241  23.407  0.00  0.00     0.029 A 
BRANCH   5   8
ATOM      8  C   UNL d   1     -44.231  12.415  22.175  0.00  0.00     0.023 A 
ATOM      9  C   UNL d   1     -43.498  12.022  22.125  0.00  0.00     0.004 A 
ATOM     10  C   UNL d   1     -42.873  12.368  21.708  0.00  0.00     0.024 A 
ATOM     11  C   UNL d   1     -42.960  13.102  21.338  0.00  0.00     0.127 A 
ATOM     12  C   UNL d   1     -43.707  13.487  21.397  0.00  0.00     0.024 A 
ATOM     13  C   UNL d   1     -44.319  13.149  21.804  0.00  0.00     0.004 A 
BRANCH  11  14
ATOM     14  N   UNL d   1     -42.340  13.429  20.934  0.00  0.00    -0.114 N 
ATOM     15  O   UNL d   1     -42.105  14.227  20.990  0.00  0.00    -0.532 OA
ATOM     16  O   UNL d   1     -41.857  13.020  20.413  0.00  0.00    -0.532 OA
ENDBRANCH  11  14
ENDBRANCH   5   8
ENDBRANCH   1   3
BRANCH   1  17
ATOM     17  N   UNL d   1     -47.321  12.325  23.194  0.00  0.00    -0.291 N 
ATOM     18  C   UNL d   1     -47.833  12.302  22.539  0.00  0.00     0.100 A 
ATOM     19  C   UNL d   1     -48.346  12.927  22.389  0.00  0.00     0.100 A 
ATOM     20  N   UNL d   1     -48.348  13.581  22.898  0.00  0.00    -0.301 N 
ATOM     21  C   UNL d   1     -47.848  13.600  23.534  0.00  0.00     0.100 A 
ATOM     22  C   UNL d   1     -47.333  12.971  23.684  0.00  0.00     0.100 A 
BRANCH  20  23
ATOM     23  C   UNL d   1     -48.862  14.207  22.747  0.00  0.00     0.064 A 
ATOM     24  C   UNL d   1     -48.516  14.931  22.537  0.00  0.00     0.016 A 
ATOM     25  C   UNL d   1     -47.694  15.038  22.476  0.00  0.00     0.002 C 
ATOM     26  C   UNL d   1     -49.010  15.568  22.382  0.00  0.00     0.001 A 
ATOM     27  C   UNL d   1     -49.841  15.486  22.436  0.00  0.00     0.000 A 
ATOM     28  C   UNL d   1     -50.159  14.769  22.644  0.00  0.00     0.002 A 
ATOM     29  C   UNL d   1     -49.671  14.131  22.799  0.00  0.00     0.018 A 
ENDBRANCH  20  23
ENDBRANCH   1  17
TORSDOF 5
ENDMDL
MODEL 4
REMARK VINA RESULT:      -1.7      4.353      8.176
REMARK  5 active torsions:
REMARK  status: ('A' for Active; 'I' for Inactive)
REMARK    1  A    between atoms: C_3  and  C_1 
REMARK    2  A    between atoms: N_2  and  C_11 
REMARK    3  A    between atoms: N_6  and  C_3 
REMARK    4  A    between atoms: C_14  and  C_5 
REMARK    5  A    between atoms: C_10  and  N_7 
ROOT
ATOM      1  C   UNL d   1     -40.781  14.601  20.843  0.00  0.00     0.143 C 
ATOM      2  S   UNL d   1     -40.334  14.905  21.445  0.00  0.00    -0.057 SA
ENDROOT
BRANCH   1   3
ATOM      3  C   UNL d   1     -41.405  14.113  20.986  0.00  0.00     0.126 A 
ATOM      4  O   UNL d   1     -42.161  14.279  21.283  0.00  0.00    -0.305 OA
ATOM      5  C   UNL d   1     -42.575  13.560  21.315  0.00  0.00     0.100 A 
ATOM      6  C   UNL d   1     -42.098  12.986  21.052  0.00  0.00     0.027 A 
ATOM      7  C   UNL d   1     -41.363  13.309  20.841  0.00  0.00     0.029 A 
BRANCH   5   8
ATOM      8  C   UNL d   1     -43.327  13.382  21.555  0.00  0.00     0.023 A 
ATOM      9  C   UNL d   1     -43.911  13.973  21.603  0.00  0.00     0.004 A 
ATOM     10  C   UNL d   1     -44.676  13.776  21.850  0.00  0.00     0.024 A 
ATOM     11  C   UNL d   1     -44.874  12.999  22.051  0.00  0.00     0.127 A 
ATOM     12  C   UNL d   1     -44.272  12.413  21.996  0.00  0.00     0.024 A 
ATOM     13  C   UNL d   1     -43.524  12.604  21.755  0.00  0.00     0.004 A 
BRANCH  11  14
ATOM     14  N   UNL d   1     -45.626  12.821  22.290  0.00  0.00    -0.114 N 
ATOM     15  O   UNL d   1     -45.848  12.663  23.079  0.00  0.00    -0.532 OA
ATOM     16  O   UNL d   1     -46.274  12.771  21.791  0.00  0.00    -0.532 OA
ENDBRANCH  11  14
ENDBRANCH   5   8
ENDBRANCH   1   3
BRANCH   1  17
ATOM     17  N   UNL d   1     -40.593  14.796  20.034  0.00  0.00    -0.291 N 
ATOM     18  C   UNL d   1     -40.841  15.524  19.718  0.00  0.00     0.100 A 
ATOM     19  C   UNL d   1     -40.665  15.721  18.938  0.00  0.00     0.100 A 
ATOM     20  N   UNL d   1     -40.238  15.185  18.472  0.00  0.00    -0.301 N 
ATOM     21  C   UNL d   1     -39.999  14.478  18.783  0.00  0.00     0.100 A 
ATOM     22  C   UNL d   1     -40.176  14.281  19.566  0.00  0.00     0.100 A 
BRANCH  20  23
ATOM     23  C   UNL d   1     -40.062  15.384  17.692  0.00  0.00     0.064 A 
ATOM     24  C   UNL d   1     -39.307  15.696  17.547  0.00  0.00     0.016 A 
ATOM     25  C   UNL d   1     -38.744  15.810  18.147  0.00  0.00     0.002 C 
ATOM     26  C   UNL d   1     -39.111  15.900  16.777  0.00  0.00     0.001 A 
ATOM     27  C   UNL d   1     -39.661  15.796  16.155  0.00  0.00     0.000 A 
ATOM     28  C   UNL d   1     -40.395  15.489  16.317  0.00  0.00     0.002 A 
ATOM     29  C   UNL d   1     -40.594  15.283  17.084  0.00  0.00     0.018 A 
ENDBRANCH  20  23
ENDBRANCH   1  17
TORSDOF 5
ENDMDL
