MODEL 1
REMARK VINA RESULT:      66.1      0.000      0.000
REMARK  5 active torsions:
REMARK  status: ('A' for Active; 'I' for Inactive)
REMARK    1  A    between atoms: C_4  and  C_1 
REMARK    2  A    between atoms: N_5  and  C_2 
REMARK       I    between atoms: N_9  and  C_4 
REMARK       I    between atoms: C_7  and  N_5 
REMARK    3  A    between atoms: C_10  and  C_7 
REMARK    4  A    between atoms: C_21  and  N_9 
REMARK    5  A    between atoms: O_29  and  C_22 
ROOT
ATOM      1  C   UNL d   1      46.253 -17.634  44.010  0.00  0.00     0.175 A 
ATOM      2  C   UNL d   1      46.365 -18.159  43.374  0.00  0.00     0.114 A 
ATOM      3  O   UNL d   1      46.275 -18.087  44.706  0.00  0.00    -0.301 OA
ATOM      4  C   UNL d   1      46.453 -18.914  43.680  0.00  0.00     0.043 A 
ATOM      5  C   UNL d   1      46.398 -18.872  44.504  0.00  0.00     0.102 A 
ATOM      6  C   UNL d   1      46.577 -19.644  43.313  0.00  0.00     0.004 A 
ATOM      7  C   UNL d   1      46.467 -19.554  44.955  0.00  0.00     0.025 A 
ATOM      8  C   UNL d   1      46.647 -20.330  43.771  0.00  0.00     0.000 A 
ATOM      9  C   UNL d   1      46.591 -20.280  44.595  0.00  0.00     0.002 A 
ENDROOT
BRANCH   2  10
ATOM     10  N   UNL d   1      46.383 -17.948  42.571  0.00  0.00    -0.206 NA
ATOM     11  C   UNL d   1      45.858 -18.303  42.043  0.00  0.00     0.279 C 
ATOM     12  O   UNL d   1      45.316 -18.865  42.308  0.00  0.00    -0.265 OA
BRANCH  11  13
ATOM     13  C   UNL d   1      45.876 -18.093  41.247  0.00  0.00     0.060 A 
ATOM     14  C   UNL d   1      45.183 -17.882  40.863  0.00  0.00     0.031 A 
ATOM     15  C   UNL d   1      45.203 -17.674  40.074  0.00  0.00     0.119 A 
ATOM     16  O   UNL d   1      44.609 -17.440  39.547  0.00  0.00    -0.300 OA
ATOM     17  C   UNL d   1      45.921 -17.678  39.667  0.00  0.00     0.119 A 
ATOM     18  C   UNL d   1      44.965 -17.299  38.812  0.00  0.00     0.304 A 
ATOM     19  O   UNL d   1      45.773 -17.448  38.892  0.00  0.00    -0.300 OA
ATOM     20  C   UNL d   1      46.613 -17.889  40.051  0.00  0.00     0.026 A 
ATOM     21  C   UNL d   1      46.583 -18.099  40.854  0.00  0.00     0.007 A 
ENDBRANCH  11  13
ENDBRANCH   2  10
BRANCH   1  22
ATOM     22  C   UNL d   1      46.141 -16.817  43.958  0.00  0.00     0.303 C 
ATOM     23  N   UNL d   1      45.816 -16.410  44.590  0.00  0.00    -0.206 NA
ATOM     24  O   UNL d   1      46.358 -16.415  43.267  0.00  0.00    -0.263 OA
BRANCH  23  25
ATOM     25  C   UNL d   1      45.702 -15.592  44.541  0.00  0.00     0.085 A 
ATOM     26  C   UNL d   1      44.995 -15.270  44.817  0.00  0.00     0.021 A 
ATOM     27  C   UNL d   1      44.872 -14.451  44.771  0.00  0.00     0.026 A 
ATOM     28  C   UNL d   1      45.463 -13.967  44.449  0.00  0.00     0.094 A 
ATOM     29  C   UNL d   1      46.165 -14.297  44.176  0.00  0.00     0.026 A 
ATOM     30  C   UNL d   1      46.280 -15.118  44.225  0.00  0.00     0.021 A 
BRANCH  28  31
ATOM     31  O   UNL d   1      45.347 -13.154  44.401  0.00  0.00    -0.328 OA
ATOM     32  C   UNL d   1      45.018 -12.829  43.718  0.00  0.00     0.181 C 
ENDBRANCH  28  31
ENDBRANCH  23  25
ENDBRANCH   1  22
TORSDOF 5
ENDMDL
