MODEL 1
REMARK VINA RESULT:      38.8      0.000      0.000
REMARK  8 active torsions:
REMARK  status: ('A' for Active; 'I' for Inactive)
REMARK    1  A    between atoms: S_10  and  C_3 
REMARK    2  A    between atoms: C_12  and  C_7 
REMARK    3  A    between atoms: C_15  and  S_10 
REMARK    4  A    between atoms: C_11  and  C_15 
REMARK       I    between atoms: N_16  and  C_11 
REMARK    5  A    between atoms: C_23  and  N_16 
REMARK    6  A    between atoms: O_24  and  C_17 
REMARK    7  A    between atoms: C_18  and  C_29 
REMARK    8  A    between atoms: C_29  and  C_23 
ROOT
ATOM      1  N   UNL d   1      46.408 -19.054  41.547  0.00  0.00    -0.186 N 
ATOM      2  N   UNL d   1      46.308 -18.525  42.161  0.00  0.00    -0.162 NA
ATOM      3  C   UNL d   1      46.373 -18.958  40.726  0.00  0.00     0.217 A 
ATOM      4  C   UNL d   1      46.576 -19.847  41.696  0.00  0.00     0.187 A 
ATOM      5  N   UNL d   1      46.519 -19.688  40.384  0.00  0.00    -0.120 NA
ATOM      6  N   UNL d   1      46.645 -20.239  40.985  0.00  0.00    -0.127 NA
ATOM      7  C   UNL d   1      46.378 -18.790  42.942  0.00  0.00     0.102 A 
ATOM      8  C   UNL d   1      46.645 -20.110  42.481  0.00  0.00     0.042 A 
ATOM      9  C   UNL d   1      46.546 -19.584  43.098  0.00  0.00     0.024 A 
ENDROOT
BRANCH   3  10
ATOM     10  S   UNL d   1      46.220 -18.264  40.306  0.00  0.00    -0.041 SA
BRANCH  10  11
ATOM     11  C   UNL d   1      45.570 -18.209  39.820  0.00  0.00     0.101 C 
BRANCH  11  12
ATOM     12  C   UNL d   1      44.997 -17.646  39.963  0.00  0.00     0.286 C 
ATOM     13  O   UNL d   1      44.702 -17.521  40.724  0.00  0.00    -0.265 OA
ATOM     14  N   UNL d   1      44.700 -17.189  39.343  0.00  0.00    -0.206 NA
BRANCH  14  15
ATOM     15  C   UNL d   1      44.990 -17.307  38.578  0.00  0.00     0.102 C 
BRANCH  15  16
ATOM     16  C   UNL d   1      44.589 -16.981  37.933  0.00  0.00     0.021 C 
BRANCH  16  17
ATOM     17  C   UNL d   1      44.903 -16.319  37.542  0.00  0.00     0.002 A 
ATOM     18  C   UNL d   1      44.819 -16.239  36.721  0.00  0.00     0.002 A 
ATOM     19  C   UNL d   1      45.133 -15.576  36.331  0.00  0.00     0.024 A 
ATOM     20  C   UNL d   1      45.526 -15.002  36.762  0.00  0.00     0.094 A 
ATOM     21  C   UNL d   1      45.614 -15.074  37.580  0.00  0.00     0.024 A 
ATOM     22  C   UNL d   1      45.302 -15.732  37.969  0.00  0.00     0.002 A 
BRANCH  20  23
ATOM     23  O   UNL d   1      45.849 -14.329  36.391  0.00  0.00    -0.328 OA
ATOM     24  C   UNL d   1      46.642 -14.148  36.488  0.00  0.00     0.181 C 
ENDBRANCH  20  23
ENDBRANCH  16  17
ENDBRANCH  15  16
ENDBRANCH  14  15
ENDBRANCH  11  12
ENDBRANCH  10  11
ENDBRANCH   3  10
BRANCH   7  25
ATOM     25  C   UNL d   1      46.279 -18.260  43.566  0.00  0.00     0.022 A 
ATOM     26  C   UNL d   1      46.021 -17.502  43.416  0.00  0.00     0.022 A 
ATOM     27  C   UNL d   1      45.920 -16.973  44.027  0.00  0.00     0.099 A 
ATOM     28  N   UNL d   1      46.080 -17.202  44.804  0.00  0.00    -0.242 NA
ATOM     29  C   UNL d   1      46.338 -17.963  44.951  0.00  0.00     0.099 A 
ATOM     30  C   UNL d   1      46.438 -18.495  44.327  0.00  0.00     0.022 A 
ENDBRANCH   7  25
TORSDOF 8
ENDMDL
MODEL 2
REMARK VINA RESULT:      38.9      1.988      6.576
REMARK  8 active torsions:
REMARK  status: ('A' for Active; 'I' for Inactive)
REMARK    1  A    between atoms: S_10  and  C_3 
REMARK    2  A    between atoms: C_12  and  C_7 
REMARK    3  A    between atoms: C_15  and  S_10 
REMARK    4  A    between atoms: C_11  and  C_15 
REMARK       I    between atoms: N_16  and  C_11 
REMARK    5  A    between atoms: C_23  and  N_16 
REMARK    6  A    between atoms: O_24  and  C_17 
REMARK    7  A    between atoms: C_18  and  C_29 
REMARK    8  A    between atoms: C_29  and  C_23 
ROOT
ATOM      1  N   UNL d   1      44.641 -16.189  37.842  0.00  0.00    -0.186 N 
ATOM      2  N   UNL d   1      43.849 -16.041  37.710  0.00  0.00    -0.162 NA
ATOM      3  C   UNL d   1      45.034 -16.577  38.458  0.00  0.00     0.217 A 
ATOM      4  C   UNL d   1      45.213 -15.934  37.305  0.00  0.00     0.187 A 
ATOM      5  N   UNL d   1      45.836 -16.556  38.293  0.00  0.00    -0.120 NA
ATOM      6  N   UNL d   1      45.947 -16.158  37.579  0.00  0.00    -0.127 NA
ATOM      7  C   UNL d   1      43.619 -15.630  37.029  0.00  0.00     0.102 A 
ATOM      8  C   UNL d   1      44.980 -15.522  36.623  0.00  0.00     0.042 A 
ATOM      9  C   UNL d   1      44.188 -15.372  36.488  0.00  0.00     0.024 A 
ENDROOT
BRANCH   3  10
ATOM     10  S   UNL d   1      44.700 -16.929  39.125  0.00  0.00    -0.041 SA
BRANCH  10  11
ATOM     11  C   UNL d   1      45.162 -17.353  39.644  0.00  0.00     0.101 C 
BRANCH  11  12
ATOM     12  C   UNL d   1      44.813 -17.813  40.222  0.00  0.00     0.286 C 
ATOM     13  O   UNL d   1      43.993 -17.904  40.258  0.00  0.00    -0.265 OA
ATOM     14  N   UNL d   1      45.280 -18.198  40.783  0.00  0.00    -0.206 NA
BRANCH  14  15
ATOM     15  C   UNL d   1      46.101 -18.112  40.754  0.00  0.00     0.102 C 
BRANCH  15  16
ATOM     16  C   UNL d   1      46.588 -18.754  40.942  0.00  0.00     0.021 C 
BRANCH  16  17
ATOM     17  C   UNL d   1      46.584 -19.065  41.711  0.00  0.00     0.002 A 
ATOM     18  C   UNL d   1      46.517 -19.883  41.832  0.00  0.00     0.002 A 
ATOM     19  C   UNL d   1      46.513 -20.194  42.603  0.00  0.00     0.024 A 
ATOM     20  C   UNL d   1      46.575 -19.687  43.243  0.00  0.00     0.094 A 
ATOM     21  C   UNL d   1      46.643 -18.872  43.131  0.00  0.00     0.024 A 
ATOM     22  C   UNL d   1      46.647 -18.562  42.367  0.00  0.00     0.002 A 
BRANCH  20  23
ATOM     23  O   UNL d   1      46.574 -19.977  44.024  0.00  0.00    -0.328 OA
ATOM     24  C   UNL d   1      46.407 -19.474  44.648  0.00  0.00     0.181 C 
ENDBRANCH  20  23
ENDBRANCH  16  17
ENDBRANCH  15  16
ENDBRANCH  14  15
ENDBRANCH  11  12
ENDBRANCH  10  11
ENDBRANCH   3  10
BRANCH   7  25
ATOM     25  C   UNL d   1      42.820 -15.478  36.892  0.00  0.00     0.022 A 
ATOM     26  C   UNL d   1      42.373 -16.012  36.470  0.00  0.00     0.022 A 
ATOM     27  C   UNL d   1      41.584 -15.869  36.330  0.00  0.00     0.099 A 
ATOM     28  N   UNL d   1      41.231 -15.179  36.615  0.00  0.00    -0.242 NA
ATOM     29  C   UNL d   1      41.682 -14.645  37.038  0.00  0.00     0.099 A 
ATOM     30  C   UNL d   1      42.482 -14.796  37.176  0.00  0.00     0.022 A 
ENDBRANCH   7  25
TORSDOF 8
ENDMDL
MODEL 3
REMARK VINA RESULT:      41.1      1.294      2.159
REMARK  8 active torsions:
REMARK  status: ('A' for Active; 'I' for Inactive)
REMARK    1  A    between atoms: S_10  and  C_3 
REMARK    2  A    between atoms: C_12  and  C_7 
REMARK    3  A    between atoms: C_15  and  S_10 
REMARK    4  A    between atoms: C_11  and  C_15 
REMARK       I    between atoms: N_16  and  C_11 
REMARK    5  A    between atoms: C_23  and  N_16 
REMARK    6  A    between atoms: O_24  and  C_17 
REMARK    7  A    between atoms: C_18  and  C_29 
REMARK    8  A    between atoms: C_29  and  C_23 
ROOT
ATOM      1  N   UNL d   1      46.284 -17.892  43.320  0.00  0.00    -0.186 N 
ATOM      2  N   UNL d   1      46.124 -17.107  43.480  0.00  0.00    -0.162 NA
ATOM      3  C   UNL d   1      46.491 -18.281  42.620  0.00  0.00     0.217 A 
ATOM      4  C   UNL d   1      46.253 -18.459  43.919  0.00  0.00     0.187 A 
ATOM      5  N   UNL d   1      46.585 -19.076  42.796  0.00  0.00    -0.120 NA
ATOM      6  N   UNL d   1      46.437 -19.186  43.600  0.00  0.00    -0.127 NA
ATOM      7  C   UNL d   1      45.928 -16.880  44.251  0.00  0.00     0.102 A 
ATOM      8  C   UNL d   1      46.057 -18.228  44.692  0.00  0.00     0.042 A 
ATOM      9  C   UNL d   1      45.896 -17.444  44.855  0.00  0.00     0.024 A 
ENDROOT
BRANCH   3  10
ATOM     10  S   UNL d   1      46.592 -17.949  41.871  0.00  0.00    -0.041 SA
BRANCH  10  11
ATOM     11  C   UNL d   1      46.038 -18.073  41.287  0.00  0.00     0.101 C 
BRANCH  11  12
ATOM     12  C   UNL d   1      46.231 -18.510  40.625  0.00  0.00     0.286 C 
ATOM     13  O   UNL d   1      46.647 -19.221  40.689  0.00  0.00    -0.265 OA
ATOM     14  N   UNL d   1      46.011 -18.245  39.875  0.00  0.00    -0.206 NA
BRANCH  14  15
ATOM     15  C   UNL d   1      45.595 -17.535  39.802  0.00  0.00     0.102 C 
BRANCH  15  16
ATOM     16  C   UNL d   1      44.975 -17.477  39.258  0.00  0.00     0.021 C 
BRANCH  16  17
ATOM     17  C   UNL d   1      45.028 -16.938  38.628  0.00  0.00     0.002 A 
ATOM     18  C   UNL d   1      45.712 -16.482  38.523  0.00  0.00     0.002 A 
ATOM     19  C   UNL d   1      45.764 -15.944  37.892  0.00  0.00     0.024 A 
ATOM     20  C   UNL d   1      45.135 -15.866  37.374  0.00  0.00     0.094 A 
ATOM     21  C   UNL d   1      44.450 -16.316  37.471  0.00  0.00     0.024 A 
ATOM     22  C   UNL d   1      44.397 -16.852  38.097  0.00  0.00     0.002 A 
BRANCH  20  23
ATOM     23  O   UNL d   1      45.166 -15.332  36.735  0.00  0.00    -0.328 OA
ATOM     24  C   UNL d   1      45.418 -14.562  36.856  0.00  0.00     0.181 C 
ENDBRANCH  20  23
ENDBRANCH  16  17
ENDBRANCH  15  16
ENDBRANCH  14  15
ENDBRANCH  11  12
ENDBRANCH  10  11
ENDBRANCH   3  10
BRANCH   7  25
ATOM     25  C   UNL d   1      45.765 -16.089  44.418  0.00  0.00     0.022 A 
ATOM     26  C   UNL d   1      45.068 -15.889  44.788  0.00  0.00     0.022 A 
ATOM     27  C   UNL d   1      44.900 -15.109  44.955  0.00  0.00     0.099 A 
ATOM     28  N   UNL d   1      45.436 -14.516  44.750  0.00  0.00    -0.242 NA
ATOM     29  C   UNL d   1      46.136 -14.721  44.379  0.00  0.00     0.099 A 
ATOM     30  C   UNL d   1      46.300 -15.513  44.212  0.00  0.00     0.022 A 
ENDBRANCH   7  25
TORSDOF 8
ENDMDL
