MODEL 1
REMARK VINA RESULT:      60.9      0.000      0.000
REMARK  5 active torsions:
REMARK  status: ('A' for Active; 'I' for Inactive)
REMARK    1  A    between atoms: C_7  and  N_1 
REMARK       I    between atoms: C_4  and  N_8 
REMARK       I    between atoms: N_10  and  C_4 
REMARK    2  A    between atoms: N_8  and  C_5 
REMARK    3  A    between atoms: C_15  and  N_10 
REMARK    4  A    between atoms: O_18  and  C_14 
REMARK    5  A    between atoms: C_19  and  C_15 
ROOT
ATOM      1  N   UNL d   1      60.749  48.234  50.654  0.00  0.00    -0.272 N 
ATOM      2  C   UNL d   1      60.989  48.926  51.039  0.00  0.00     0.266 A 
ATOM      3  C   UNL d   1      60.304  49.375  51.180  0.00  0.00     0.082 A 
ATOM      4  C   UNL d   1      59.656  48.959  50.884  0.00  0.00     0.108 A 
ATOM      5  C   UNL d   1      59.938  48.253  50.559  0.00  0.00     0.102 A 
ATOM      6  O   UNL d   1      61.756  49.131  51.243  0.00  0.00    -0.267 OA
ENDROOT
BRANCH   1   7
ATOM      7  C   UNL d   1      61.250  47.626  50.408  0.00  0.00     0.067 A 
ATOM      8  C   UNL d   1      61.229  46.894  50.793  0.00  0.00     0.020 A 
ATOM      9  C   UNL d   1      61.730  46.286  50.547  0.00  0.00     0.026 A 
ATOM     10  C   UNL d   1      62.251  46.408  49.920  0.00  0.00     0.094 A 
ATOM     11  C   UNL d   1      62.275  47.134  49.534  0.00  0.00     0.026 A 
ATOM     12  C   UNL d   1      61.769  47.748  49.782  0.00  0.00     0.020 A 
BRANCH  10  13
ATOM     13  O   UNL d   1      62.748  45.795  49.681  0.00  0.00    -0.328 OA
ATOM     14  C   UNL d   1      62.492  45.269  49.102  0.00  0.00     0.181 C 
ENDBRANCH  10  13
ENDBRANCH   1   7
BRANCH   4  15
ATOM     15  N   UNL d   1      58.868  49.210  50.910  0.00  0.00    -0.189 NA
ATOM     16  C   UNL d   1      58.497  49.455  50.220  0.00  0.00     0.369 C 
ATOM     17  N   UNL d   1      57.709  49.707  50.241  0.00  0.00    -0.189 NA
ATOM     18  O   UNL d   1      58.903  49.453  49.505  0.00  0.00    -0.242 OA
BRANCH  17  19
ATOM     19  C   UNL d   1      57.309  49.708  50.951  0.00  0.00     0.104 C 
BRANCH  19  20
ATOM     20  C   UNL d   1      56.492  49.591  50.970  0.00  0.00     0.019 C 
ATOM     21  C   UNL d   1      56.038  49.694  50.292  0.00  0.00     0.002 C 
ATOM     22  C   UNL d   1      56.123  49.368  51.677  0.00  0.00     0.002 C 
ENDBRANCH  19  20
ENDBRANCH  17  19
ENDBRANCH   4  15
TORSDOF 5
ENDMDL
