MODEL 1
REMARK VINA RESULT:      28.5      0.000      0.000
REMARK  4 active torsions:
REMARK  status: ('A' for Active; 'I' for Inactive)
REMARK    1  A    between atoms: C_14  and  N_1 
REMARK    2  A    between atoms: S_12  and  C_2 
REMARK    3  A    between atoms: C_9  and  C_17 
REMARK    4  A    between atoms: C_17  and  S_12 
ROOT
ATOM      1  S   UNL d   1      14.113  12.733  -1.508  0.00  0.00    -0.045 SA
ENDROOT
BRANCH   1   2
ATOM      2  C   UNL d   1      14.687  12.533  -0.957  0.00  0.00     0.219 A 
ATOM      3  N   UNL d   1      15.089  13.057  -0.481  0.00  0.00    -0.186 N 
ATOM      4  N   UNL d   1      15.606  12.631  -0.018  0.00  0.00    -0.038 NA
ATOM      5  N   UNL d   1      15.524  11.838  -0.206  0.00  0.00    -0.022 NA
ATOM      6  N   UNL d   1      14.947  11.780  -0.795  0.00  0.00    -0.101 NA
BRANCH   3   7
ATOM      7  C   UNL d   1      14.992  13.874  -0.469  0.00  0.00     0.087 A 
ATOM      8  C   UNL d   1      15.541  14.359  -0.842  0.00  0.00     0.019 A 
ATOM      9  C   UNL d   1      15.445  15.172  -0.831  0.00  0.00     0.002 A 
ATOM     10  C   UNL d   1      14.797  15.507  -0.445  0.00  0.00     0.000 A 
ATOM     11  C   UNL d   1      14.249  15.021  -0.072  0.00  0.00     0.002 A 
ATOM     12  C   UNL d   1      14.346  14.204  -0.084  0.00  0.00     0.019 A 
ENDBRANCH   3   7
ENDBRANCH   1   2
BRANCH   1  13
ATOM     13  C   UNL d   1      13.797  12.160  -1.971  0.00  0.00     0.059 C 
BRANCH  13  14
ATOM     14  C   UNL d   1      13.570  12.341  -2.732  0.00  0.00     0.107 A 
ATOM     15  N   UNL d   1      13.418  11.781  -3.334  0.00  0.00    -0.226 NA
ATOM     16  C   UNL d   1      13.199  12.224  -4.034  0.00  0.00     0.148 A 
ATOM     17  C   UNL d   1      12.987  11.970  -4.806  0.00  0.00     0.037 A 
ATOM     18  N   UNL d   1      13.222  13.041  -3.846  0.00  0.00    -0.289 N 
ATOM     19  C   UNL d   1      12.798  12.546  -5.382  0.00  0.00     0.005 A 
ATOM     20  C   UNL d   1      12.821  13.362  -5.194  0.00  0.00     0.018 A 
ATOM     21  C   UNL d   1      13.032  13.608  -4.429  0.00  0.00     0.066 A 
ATOM     22  C   UNL d   1      13.054  14.416  -4.243  0.00  0.00     0.019 C 
ATOM     23  C   UNL d   1      13.455  13.112  -3.027  0.00  0.00     0.101 A 
ENDBRANCH  13  14
ENDBRANCH   1  13
TORSDOF 4
ENDMDL
