MODEL 1
REMARK VINA RESULT:     105.7      0.000      0.000
REMARK  4 active torsions:
REMARK  status: ('A' for Active; 'I' for Inactive)
REMARK    1  A    between atoms: N_5  and  S_1 
REMARK    2  A    between atoms: C_8  and  S_1 
REMARK    3  A    between atoms: C_18  and  N_2 
REMARK    4  A    between atoms: C_10  and  N_5 
ROOT
ATOM      1  N   UNL d   1     -55.859-102.233 -36.824  0.00  0.00    -0.273 N 
ATOM      2  C   UNL d   1     -56.670-102.382 -36.844  0.00  0.00     0.265 A 
ATOM      3  C   UNL d   1     -55.560-102.210 -37.606  0.00  0.00     0.067 A 
ATOM      4  C   UNL d   1     -56.209-102.349 -38.112  0.00  0.00     0.021 A 
ATOM      5  C   UNL d   1     -56.884-102.454 -37.655  0.00  0.00     0.058 A 
ATOM      6  C   UNL d   1     -55.576-102.283 -39.373  0.00  0.00     0.105 A 
ATOM      7  C   UNL d   1     -56.250-102.388 -38.911  0.00  0.00     0.014 A 
ATOM      8  C   UNL d   1     -54.815-102.085 -37.904  0.00  0.00     0.018 A 
ATOM      9  C   UNL d   1     -54.875-102.142 -39.035  0.00  0.00     0.014 A 
ATOM     10  O   UNL d   1     -57.167-102.446 -36.162  0.00  0.00    -0.267 OA
ATOM     11  C   UNL d   1     -57.599-102.598 -37.996  0.00  0.00     0.005 A 
ATOM     12  C   UNL d   1     -56.983-102.537 -39.285  0.00  0.00     0.001 A 
ATOM     13  C   UNL d   1     -57.674-102.646 -38.857  0.00  0.00     0.000 A 
ENDROOT
BRANCH   6  14
ATOM     14  S   UNL d   1     -55.633-102.327 -40.190  0.00  0.00     0.287 S 
ATOM     15  O   UNL d   1     -56.248-102.868 -40.134  0.00  0.00    -0.198 OA
ATOM     16  O   UNL d   1     -55.000-101.768 -40.289  0.00  0.00    -0.198 OA
BRANCH  14  17
ATOM     17  N   UNL d   1     -55.692-102.371 -41.023  0.00  0.00    -0.139 NA
BRANCH  17  18
ATOM     18  C   UNL d   1     -55.474-101.755 -41.514  0.00  0.00     0.174 A 
ATOM     19  N   UNL d   1     -55.224-101.053 -41.141  0.00  0.00    -0.225 NA
ATOM     20  C   UNL d   1     -54.996-100.408 -41.596  0.00  0.00     0.101 A 
ATOM     21  C   UNL d   1     -55.018-100.465 -42.429  0.00  0.00     0.021 A 
ATOM     22  C   UNL d   1     -55.269-101.168 -42.808  0.00  0.00     0.005 A 
ATOM     23  C   UNL d   1     -55.497-101.813 -42.348  0.00  0.00     0.037 A 
ATOM     24  C   UNL d   1     -55.832-102.757 -42.334  0.00  0.00     0.003 C 
ENDBRANCH  17  18
ENDBRANCH  14  17
ENDBRANCH   6  14
BRANCH   1  25
ATOM     25  C   UNL d   1     -55.423-102.126 -36.137  0.00  0.00     0.083 C 
ATOM     26  C   UNL d   1     -55.417-101.384 -35.787  0.00  0.00     0.021 C 
ENDBRANCH   1  25
TORSDOF 4
ENDMDL
MODEL 2
REMARK VINA RESULT:     106.6      1.913      2.770
REMARK  4 active torsions:
REMARK  status: ('A' for Active; 'I' for Inactive)
REMARK    1  A    between atoms: N_5  and  S_1 
REMARK    2  A    between atoms: C_8  and  S_1 
REMARK    3  A    between atoms: C_18  and  N_2 
REMARK    4  A    between atoms: C_10  and  N_5 
ROOT
ATOM      1  N   UNL d   1     -55.378-101.024 -38.913  0.00  0.00    -0.273 N 
ATOM      2  C   UNL d   1     -55.243-101.838 -38.930  0.00  0.00     0.265 A 
ATOM      3  C   UNL d   1     -55.369-100.723 -39.693  0.00  0.00     0.067 A 
ATOM      4  C   UNL d   1     -55.226-101.374 -40.197  0.00  0.00     0.021 A 
ATOM      5  C   UNL d   1     -55.149-102.051 -39.738  0.00  0.00     0.058 A 
ATOM      6  C   UNL d   1     -55.238-100.737 -41.458  0.00  0.00     0.105 A 
ATOM      7  C   UNL d   1     -55.161-101.414 -40.994  0.00  0.00     0.014 A 
ATOM      8  C   UNL d   1     -55.470 -99.976 -39.994  0.00  0.00     0.018 A 
ATOM      9  C   UNL d   1     -55.377-100.034 -41.123  0.00  0.00     0.014 A 
ATOM     10  O   UNL d   1     -55.212-102.338 -38.248  0.00  0.00    -0.267 OA
ATOM     11  C   UNL d   1     -55.007-102.769 -40.077  0.00  0.00     0.005 A 
ATOM     12  C   UNL d   1     -55.014-102.149 -41.366  0.00  0.00     0.001 A 
ATOM     13  C   UNL d   1     -54.932-102.843 -40.936  0.00  0.00     0.000 A 
ENDROOT
BRANCH   6  14
ATOM     14  S   UNL d   1     -55.169-100.793 -42.273  0.00  0.00     0.287 S 
ATOM     15  O   UNL d   1     -54.755-100.085 -42.302  0.00  0.00    -0.198 OA
ATOM     16  O   UNL d   1     -55.595-101.529 -42.284  0.00  0.00    -0.198 OA
BRANCH  14  17
ATOM     17  N   UNL d   1     -55.099-100.850 -43.104  0.00  0.00    -0.139 NA
BRANCH  17  18
ATOM     18  C   UNL d   1     -55.306-100.242 -43.608  0.00  0.00     0.174 A 
ATOM     19  N   UNL d   1     -55.663 -99.575 -43.258  0.00  0.00    -0.225 NA
ATOM     20  C   UNL d   1     -55.888 -98.939 -43.726  0.00  0.00     0.101 A 
ATOM     21  C   UNL d   1     -55.755 -98.969 -44.550  0.00  0.00     0.021 A 
ATOM     22  C   UNL d   1     -55.396 -99.636 -44.906  0.00  0.00     0.005 A 
ATOM     23  C   UNL d   1     -55.172-100.272 -44.433  0.00  0.00     0.037 A 
ATOM     24  C   UNL d   1     -54.758-101.183 -44.393  0.00  0.00     0.003 C 
ENDBRANCH  17  18
ENDBRANCH  14  17
ENDBRANCH   6  14
BRANCH   1  25
ATOM     25  C   UNL d   1     -55.499-100.588 -38.228  0.00  0.00     0.083 C 
ATOM     26  C   UNL d   1     -54.848-100.266 -37.847  0.00  0.00     0.021 C 
ENDBRANCH   1  25
TORSDOF 4
ENDMDL
