MODEL 1
REMARK VINA RESULT:      -7.2      0.000      0.000
REMARK  5 active torsions:
REMARK  status: ('A' for Active; 'I' for Inactive)
REMARK    1  A    between atoms: C_5  and  N_1 
REMARK    2  A    between atoms: C_6  and  C_5 
REMARK       I    between atoms: N_9  and  C_6 
REMARK    3  A    between atoms: C_13  and  N_9 
REMARK    4  A    between atoms: O_19  and  C_14 
REMARK    5  A    between atoms: C_21  and  O_19 
ROOT
ATOM      1  C   UNL d   1      52.564  32.452  52.980  0.00  0.00     0.297 C 
ATOM      2  N   UNL d   1      52.935  31.828  52.589  0.00  0.00    -0.207 NA
ATOM      3  O   UNL d   1      52.288  32.349  53.751  0.00  0.00    -0.264 OA
ENDROOT
BRANCH   1   4
ATOM      4  C   UNL d   1      52.468  33.175  52.604  0.00  0.00     0.148 C 
BRANCH   4   5
ATOM      5  N   UNL d   1      52.233  33.838  53.035  0.00  0.00    -0.235 N 
ATOM      6  C   UNL d   1      52.809  34.313  53.408  0.00  0.00     0.273 A 
ATOM      7  C   UNL d   1      52.574  34.976  53.839  0.00  0.00     0.086 A 
ATOM      8  O   UNL d   1      53.612  34.114  53.342  0.00  0.00    -0.266 OA
ATOM      9  C   UNL d   1      53.140  35.452  54.212  0.00  0.00     0.012 C 
ATOM     10  S   UNL d   1      51.765  35.165  53.898  0.00  0.00    -0.077 SA
ATOM     11  C   UNL d   1      51.207  34.694  53.530  0.00  0.00     0.097 A 
ATOM     12  C   UNL d   1      51.441  34.031  53.098  0.00  0.00     0.274 A 
ATOM     13  O   UNL d   1      50.869  33.549  52.721  0.00  0.00    -0.266 OA
ENDBRANCH   4   5
ENDBRANCH   1   4
BRANCH   2  14
ATOM     14  C   UNL d   1      53.030  31.101  52.969  0.00  0.00     0.085 A 
ATOM     15  C   UNL d   1      52.436  30.543  52.936  0.00  0.00     0.021 A 
ATOM     16  C   UNL d   1      52.521  29.827  53.306  0.00  0.00     0.026 A 
ATOM     17  C   UNL d   1      53.222  29.660  53.724  0.00  0.00     0.100 A 
ATOM     18  C   UNL d   1      53.816  30.218  53.757  0.00  0.00     0.026 A 
ATOM     19  C   UNL d   1      53.716  30.950  53.372  0.00  0.00     0.021 A 
BRANCH  17  20
ATOM     20  O   UNL d   1      53.309  28.920  54.107  0.00  0.00    -0.305 OA
BRANCH  20  21
ATOM     21  C   UNL d   1      53.314  28.870  54.930  0.00  0.00     0.123 C 
ATOM     22  C   UNL d   1      53.495  28.159  55.298  0.00  0.00     0.029 C 
ENDBRANCH  20  21
ENDBRANCH  17  20
ENDBRANCH   2  14
TORSDOF 5
ENDMDL
MODEL 2
REMARK VINA RESULT:      -7.2      1.951      4.719
REMARK  5 active torsions:
REMARK  status: ('A' for Active; 'I' for Inactive)
REMARK    1  A    between atoms: C_5  and  N_1 
REMARK    2  A    between atoms: C_6  and  C_5 
REMARK       I    between atoms: N_9  and  C_6 
REMARK    3  A    between atoms: C_13  and  N_9 
REMARK    4  A    between atoms: O_19  and  C_14 
REMARK    5  A    between atoms: C_21  and  O_19 
ROOT
ATOM      1  C   UNL d   1      52.000  33.474  52.783  0.00  0.00     0.297 C 
ATOM      2  N   UNL d   1      51.726  34.160  52.415  0.00  0.00    -0.207 NA
ATOM      3  O   UNL d   1      51.483  33.013  53.231  0.00  0.00    -0.264 OA
ENDROOT
BRANCH   1   4
ATOM      4  C   UNL d   1      52.785  33.249  52.704  0.00  0.00     0.148 C 
BRANCH   4   5
ATOM      5  N   UNL d   1      53.128  32.743  53.257  0.00  0.00    -0.235 N 
ATOM      6  C   UNL d   1      53.532  33.061  53.914  0.00  0.00     0.273 A 
ATOM      7  C   UNL d   1      53.875  32.554  54.467  0.00  0.00     0.086 A 
ATOM      8  O   UNL d   1      53.584  33.884  54.006  0.00  0.00    -0.266 OA
ATOM      9  C   UNL d   1      54.277  32.863  55.122  0.00  0.00     0.012 C 
ATOM     10  S   UNL d   1      53.816  31.729  54.365  0.00  0.00    -0.077 SA
ATOM     11  C   UNL d   1      53.418  31.426  53.718  0.00  0.00     0.097 A 
ATOM     12  C   UNL d   1      53.075  31.932  53.164  0.00  0.00     0.274 A 
ATOM     13  O   UNL d   1      52.668  31.620  52.502  0.00  0.00    -0.266 OA
ENDBRANCH   4   5
ENDBRANCH   1   4
BRANCH   2  14
ATOM     14  C   UNL d   1      50.936  34.384  52.496  0.00  0.00     0.085 A 
ATOM     15  C   UNL d   1      50.416  34.275  51.876  0.00  0.00     0.021 A 
ATOM     16  C   UNL d   1      49.639  34.492  51.946  0.00  0.00     0.026 A 
ATOM     17  C   UNL d   1      49.368  34.830  52.659  0.00  0.00     0.100 A 
ATOM     18  C   UNL d   1      49.887  34.938  53.278  0.00  0.00     0.026 A 
ATOM     19  C   UNL d   1      50.684  34.711  53.193  0.00  0.00     0.021 A 
BRANCH  17  20
ATOM     20  O   UNL d   1      48.564  35.054  52.731  0.00  0.00    -0.305 OA
BRANCH  20  21
ATOM     21  C   UNL d   1      48.360  35.824  52.945  0.00  0.00     0.123 C 
ATOM     22  C   UNL d   1      47.577  36.067  52.908  0.00  0.00     0.029 C 
ENDBRANCH  20  21
ENDBRANCH  17  20
ENDBRANCH   2  14
TORSDOF 5
ENDMDL
MODEL 3
REMARK VINA RESULT:      -5.9      1.797      4.708
REMARK  5 active torsions:
REMARK  status: ('A' for Active; 'I' for Inactive)
REMARK    1  A    between atoms: C_5  and  N_1 
REMARK    2  A    between atoms: C_6  and  C_5 
REMARK       I    between atoms: N_9  and  C_6 
REMARK    3  A    between atoms: C_13  and  N_9 
REMARK    4  A    between atoms: O_19  and  C_14 
REMARK    5  A    between atoms: C_21  and  O_19 
ROOT
ATOM      1  C   UNL d   1      52.635  32.244  53.100  0.00  0.00     0.297 C 
ATOM      2  N   UNL d   1      52.715  33.059  52.995  0.00  0.00    -0.207 NA
ATOM      3  O   UNL d   1      51.884  31.908  53.158  0.00  0.00    -0.264 OA
ENDROOT
BRANCH   1   4
ATOM      4  C   UNL d   1      53.302  31.768  53.146  0.00  0.00     0.148 C 
BRANCH   4   5
ATOM      5  N   UNL d   1      53.227  30.968  53.334  0.00  0.00    -0.235 N 
ATOM      6  C   UNL d   1      53.353  30.714  54.118  0.00  0.00     0.273 A 
ATOM      7  C   UNL d   1      53.278  29.914  54.306  0.00  0.00     0.086 A 
ATOM      8  O   UNL d   1      53.553  31.268  54.703  0.00  0.00    -0.266 OA
ATOM      9  C   UNL d   1      53.402  29.655  55.082  0.00  0.00     0.012 C 
ATOM     10  S   UNL d   1      53.077  29.367  53.710  0.00  0.00    -0.077 SA
ATOM     11  C   UNL d   1      52.954  29.625  52.943  0.00  0.00     0.097 A 
ATOM     12  C   UNL d   1      53.029  30.424  52.755  0.00  0.00     0.274 A 
ATOM     13  O   UNL d   1      52.904  30.687  51.969  0.00  0.00    -0.266 OA
ENDBRANCH   4   5
ENDBRANCH   1   4
BRANCH   2  14
ATOM     14  C   UNL d   1      52.043  33.536  52.949  0.00  0.00     0.085 A 
ATOM     15  C   UNL d   1      51.662  33.771  53.631  0.00  0.00     0.021 A 
ATOM     16  C   UNL d   1      51.002  34.239  53.595  0.00  0.00     0.026 A 
ATOM     17  C   UNL d   1      50.709  34.483  52.854  0.00  0.00     0.100 A 
ATOM     18  C   UNL d   1      51.090  34.248  52.172  0.00  0.00     0.026 A 
ATOM     19  C   UNL d   1      51.768  33.767  52.223  0.00  0.00     0.021 A 
BRANCH  17  20
ATOM     20  O   UNL d   1      50.027  34.967  52.818  0.00  0.00    -0.305 OA
BRANCH  20  21
ATOM     21  C   UNL d   1      49.343  34.702  52.440  0.00  0.00     0.123 C 
ATOM     22  C   UNL d   1      48.663  35.162  52.449  0.00  0.00     0.029 C 
ENDBRANCH  20  21
ENDBRANCH  17  20
ENDBRANCH   2  14
TORSDOF 5
ENDMDL
