MODEL 1
REMARK VINA RESULT:      -5.2      0.000      0.000
REMARK  2 active torsions:
REMARK  status: ('A' for Active; 'I' for Inactive)
REMARK       I    between atoms: N_2  and  C_1 
REMARK       I    between atoms: N_3  and  C_1 
REMARK    1  A    between atoms: C_12  and  N_3 
REMARK    2  A    between atoms: C_5  and  N_4 
ROOT
ATOM      1  C   UNL d   1     -41.624-122.325 -52.503  0.00  0.00     0.339 C 
ATOM      2  N   UNL d   1     -41.668-122.524 -51.704  0.00  0.00    -0.254 N 
ATOM      3  N   UNL d   1     -41.801-122.886 -53.083  0.00  0.00    -0.257 N 
ATOM      4  N   UNL d   1     -41.758-122.926 -50.092  0.00  0.00    -0.286 N 
ATOM      5  O   UNL d   1     -41.399-121.555 -52.715  0.00  0.00    -0.245 OA
ATOM      6  C   UNL d   1     -41.492-121.966 -51.120  0.00  0.00     0.104 A 
ATOM      7  C   UNL d   1     -41.893-123.295 -51.474  0.00  0.00     0.104 A 
ATOM      8  C   UNL d   1     -41.536-122.165 -50.321  0.00  0.00     0.101 A 
ATOM      9  C   UNL d   1     -41.938-123.495 -50.670  0.00  0.00     0.101 A 
ATOM     10  C   UNL d   1     -42.022-123.644 -52.866  0.00  0.00     0.104 C 
ENDROOT
BRANCH   3  11
ATOM     11  C   UNL d   1     -41.755-122.681 -53.889  0.00  0.00     0.068 A 
ATOM     12  C   UNL d   1     -42.294-122.138 -54.211  0.00  0.00     0.018 A 
ATOM     13  C   UNL d   1     -42.239-121.942 -55.011  0.00  0.00     0.002 A 
ATOM     14  C   UNL d   1     -41.654-122.282 -55.487  0.00  0.00     0.000 A 
ATOM     15  C   UNL d   1     -41.123-122.823 -55.151  0.00  0.00     0.002 A 
ATOM     16  C   UNL d   1     -41.175-123.021 -54.352  0.00  0.00     0.018 A 
ENDBRANCH   3  11
BRANCH   4  17
ATOM     17  C   UNL d   1     -41.803-123.125 -49.293  0.00  0.00     0.148 A 
ATOM     18  N   UNL d   1     -41.131-123.389 -48.908  0.00  0.00    -0.227 NA
ATOM     19  C   UNL d   1     -41.175-123.587 -48.113  0.00  0.00     0.101 A 
ATOM     20  C   UNL d   1     -41.878-123.523 -47.711  0.00  0.00     0.021 A 
ATOM     21  C   UNL d   1     -42.549-123.257 -48.107  0.00  0.00     0.005 A 
ATOM     22  C   UNL d   1     -42.505-123.060 -48.895  0.00  0.00     0.037 A 
ENDBRANCH   4  17
TORSDOF 2
ENDMDL
MODEL 2
REMARK VINA RESULT:      -3.1      1.037      5.001
REMARK  2 active torsions:
REMARK  status: ('A' for Active; 'I' for Inactive)
REMARK       I    between atoms: N_2  and  C_1 
REMARK       I    between atoms: N_3  and  C_1 
REMARK    1  A    between atoms: C_12  and  N_3 
REMARK    2  A    between atoms: C_5  and  N_4 
ROOT
ATOM      1  C   UNL d   1     -41.733-123.055 -50.676  0.00  0.00     0.339 C 
ATOM      2  N   UNL d   1     -41.797-122.835 -51.468  0.00  0.00    -0.254 N 
ATOM      3  N   UNL d   1     -42.238-122.728 -50.110  0.00  0.00    -0.257 N 
ATOM      4  N   UNL d   1     -41.926-122.390 -53.065  0.00  0.00    -0.286 N 
ATOM      5  O   UNL d   1     -41.156-123.610 -50.456  0.00  0.00    -0.245 OA
ATOM      6  C   UNL d   1     -41.293-123.160 -52.038  0.00  0.00     0.104 A 
ATOM      7  C   UNL d   1     -42.373-122.278 -51.705  0.00  0.00     0.104 A 
ATOM      8  C   UNL d   1     -41.357-122.940 -52.830  0.00  0.00     0.101 A 
ATOM      9  C   UNL d   1     -42.437-122.057 -52.502  0.00  0.00     0.101 A 
ATOM     10  C   UNL d   1     -42.806-122.182 -50.334  0.00  0.00     0.104 C 
ENDROOT
BRANCH   3  11
ATOM     11  C   UNL d   1     -42.171-122.953 -49.311  0.00  0.00     0.068 A 
ATOM     12  C   UNL d   1     -41.573-122.627 -48.836  0.00  0.00     0.018 A 
ATOM     13  C   UNL d   1     -41.516-122.857 -48.046  0.00  0.00     0.002 A 
ATOM     14  C   UNL d   1     -42.047-123.407 -47.729  0.00  0.00     0.000 A 
ATOM     15  C   UNL d   1     -42.639-123.725 -48.215  0.00  0.00     0.002 A 
ATOM     16  C   UNL d   1     -42.699-123.497 -49.006  0.00  0.00     0.018 A 
ENDBRANCH   3  11
BRANCH   4  17
ATOM     17  C   UNL d   1     -41.990-122.169 -53.858  0.00  0.00     0.148 A 
ATOM     18  N   UNL d   1     -41.699-121.443 -54.095  0.00  0.00    -0.227 NA
ATOM     19  C   UNL d   1     -41.763-121.223 -54.884  0.00  0.00     0.101 A 
ATOM     20  C   UNL d   1     -42.110-121.721 -55.424  0.00  0.00     0.021 A 
ATOM     21  C   UNL d   1     -42.399-122.451 -55.175  0.00  0.00     0.005 A 
ATOM     22  C   UNL d   1     -42.337-122.668 -54.394  0.00  0.00     0.037 A 
ENDBRANCH   4  17
TORSDOF 2
ENDMDL
