MODEL 1
REMARK VINA RESULT:      17.2      0.000      0.000
REMARK  3 active torsions:
REMARK  status: ('A' for Active; 'I' for Inactive)
REMARK    1  A    between atoms: C_2  and  C_1 
REMARK    2  A    between atoms: N_5  and  C_2 
REMARK    3  A    between atoms: C_9  and  N_5 
ROOT
ATOM      1  C   UNL d   1     -56.590 -99.091 -44.610  0.00  0.00     0.139 C 
ATOM      2  S   UNL d   1     -56.694 -98.758 -45.364  0.00  0.00    -0.057 SA
ENDROOT
BRANCH   1   3
ATOM      3  C   UNL d   1     -56.003 -99.661 -44.485  0.00  0.00     0.074 A 
ATOM      4  C   UNL d   1     -55.170 -99.501 -44.341  0.00  0.00     0.129 A 
ATOM      5  O   UNL d   1     -54.774-100.258 -44.245  0.00  0.00    -0.211 OA
ATOM      6  C   UNL d   1     -54.824 -98.761 -44.304  0.00  0.00     0.029 C 
ATOM      7  N   UNL d   1     -55.355-100.880 -44.328  0.00  0.00    -0.125 NA
ATOM      8  C   UNL d   1     -56.117-100.513 -44.477  0.00  0.00     0.132 A 
ENDBRANCH   1   3
BRANCH   1   9
ATOM      9  N   UNL d   1     -57.072 -98.853 -43.988  0.00  0.00    -0.235 NA
BRANCH   9  10
ATOM     10  C   UNL d   1     -57.887 -98.820 -44.089  0.00  0.00     0.082 A 
ATOM     11  C   UNL d   1     -58.378 -98.814 -43.430  0.00  0.00     0.019 A 
ATOM     12  C   UNL d   1     -59.189 -98.782 -43.535  0.00  0.00     0.002 A 
ATOM     13  C   UNL d   1     -59.508 -98.755 -44.285  0.00  0.00     0.000 A 
ATOM     14  C   UNL d   1     -59.009 -98.761 -44.944  0.00  0.00     0.002 A 
ATOM     15  C   UNL d   1     -58.192 -98.794 -44.840  0.00  0.00     0.019 A 
ENDBRANCH   9  10
ENDBRANCH   1   9
TORSDOF 3
ENDMDL
