MODEL 1
REMARK VINA RESULT:      -7.7      0.000      0.000
REMARK  3 active torsions:
REMARK  status: ('A' for Active; 'I' for Inactive)
REMARK    1  A    between atoms: C_2  and  S_1 
REMARK    2  A    between atoms: N_6  and  S_1 
REMARK    3  A    between atoms: N_3  and  C_5 
ROOT
ATOM      1  C   UNL d   1     -48.030  13.258  22.834  0.00  0.00     0.106 A 
ATOM      2  C   UNL d   1     -47.350  12.799  22.928  0.00  0.00     0.036 A 
ATOM      3  C   UNL d   1     -46.612  13.166  22.979  0.00  0.00     0.127 A 
ATOM      4  C   UNL d   1     -47.972  14.081  22.789  0.00  0.00     0.012 A 
ATOM      5  C   UNL d   1     -46.554  13.988  22.935  0.00  0.00     0.024 A 
ATOM      6  C   UNL d   1     -47.234  14.447  22.840  0.00  0.00     0.002 A 
ATOM      7  C   UNL d   1     -48.659  14.543  22.694  0.00  0.00     0.001 C 
ENDROOT
BRANCH   1   8
ATOM      8  S   UNL d   1     -48.780  12.892  22.782  0.00  0.00     0.272 S 
ATOM      9  O   UNL d   1     -49.410  13.186  23.228  0.00  0.00    -0.200 OA
ATOM     10  O   UNL d   1     -48.891  12.241  22.287  0.00  0.00    -0.200 OA
BRANCH   8  11
ATOM     11  N   UNL d   1     -49.419  12.404  22.594  0.00  0.00    -0.226 N 
ATOM     12  C   UNL d   1     -49.761  12.439  21.839  0.00  0.00     0.111 C 
ATOM     13  C   UNL d   1     -49.716  11.883  23.163  0.00  0.00     0.111 C 
ENDBRANCH   8  11
ENDBRANCH   1   8
BRANCH   3  14
ATOM     14  N   UNL d   1     -45.933  12.707  23.073  0.00  0.00    -0.114 N 
ATOM     15  O   UNL d   1     -45.295  12.807  22.558  0.00  0.00    -0.532 OA
ATOM     16  O   UNL d   1     -45.890  12.150  23.682  0.00  0.00    -0.532 OA
ENDBRANCH   3  14
TORSDOF 3
ENDMDL
MODEL 2
REMARK VINA RESULT:      -7.6      0.999      1.767
REMARK  3 active torsions:
REMARK  status: ('A' for Active; 'I' for Inactive)
REMARK    1  A    between atoms: C_2  and  S_1 
REMARK    2  A    between atoms: N_6  and  S_1 
REMARK    3  A    between atoms: N_3  and  C_5 
ROOT
ATOM      1  C   UNL d   1     -48.308  12.699  22.977  0.00  0.00     0.106 A 
ATOM      2  C   UNL d   1     -47.505  12.880  23.039  0.00  0.00     0.036 A 
ATOM      3  C   UNL d   1     -46.990  12.345  23.400  0.00  0.00     0.127 A 
ATOM      4  C   UNL d   1     -48.595  11.984  23.275  0.00  0.00     0.012 A 
ATOM      5  C   UNL d   1     -47.277  11.631  23.698  0.00  0.00     0.024 A 
ATOM      6  C   UNL d   1     -48.080  11.449  23.636  0.00  0.00     0.002 A 
ATOM      7  C   UNL d   1     -49.406  11.801  23.212  0.00  0.00     0.001 C 
ENDROOT
BRANCH   1   8
ATOM      8  S   UNL d   1     -48.833  13.236  22.613  0.00  0.00     0.272 S 
ATOM      9  O   UNL d   1     -49.546  13.428  22.985  0.00  0.00    -0.200 OA
ATOM     10  O   UNL d   1     -48.642  13.576  21.885  0.00  0.00    -0.200 OA
BRANCH   8  11
ATOM     11  N   UNL d   1     -49.203  13.772  22.104  0.00  0.00    -0.226 N 
ATOM     12  C   UNL d   1     -49.160  14.587  22.254  0.00  0.00     0.111 C 
ATOM     13  C   UNL d   1     -49.614  13.491  21.444  0.00  0.00     0.111 C 
ENDBRANCH   8  11
ENDBRANCH   1   8
BRANCH   3  14
ATOM     14  N   UNL d   1     -46.187  12.527  23.462  0.00  0.00    -0.114 N 
ATOM     15  O   UNL d   1     -45.623  11.942  23.322  0.00  0.00    -0.532 OA
ATOM     16  O   UNL d   1     -45.950  13.292  23.664  0.00  0.00    -0.532 OA
ENDBRANCH   3  14
TORSDOF 3
ENDMDL
MODEL 3
REMARK VINA RESULT:      -7.0      1.568      3.317
REMARK  3 active torsions:
REMARK  status: ('A' for Active; 'I' for Inactive)
REMARK    1  A    between atoms: C_2  and  S_1 
REMARK    2  A    between atoms: N_6  and  S_1 
REMARK    3  A    between atoms: N_3  and  C_5 
ROOT
ATOM      1  C   UNL d   1     -48.402  13.674  22.370  0.00  0.00     0.106 A 
ATOM      2  C   UNL d   1     -48.817  14.250  22.792  0.00  0.00     0.036 A 
ATOM      3  C   UNL d   1     -49.593  14.433  22.580  0.00  0.00     0.127 A 
ATOM      4  C   UNL d   1     -48.763  13.283  21.739  0.00  0.00     0.012 A 
ATOM      5  C   UNL d   1     -49.954  14.042  21.948  0.00  0.00     0.024 A 
ATOM      6  C   UNL d   1     -49.539  13.466  21.527  0.00  0.00     0.002 A 
ATOM      7  C   UNL d   1     -48.343  12.701  21.313  0.00  0.00     0.001 C 
ENDROOT
BRANCH   1   8
ATOM      8  S   UNL d   1     -47.616  13.484  22.581  0.00  0.00     0.272 S 
ATOM      9  O   UNL d   1     -47.063  13.318  21.990  0.00  0.00    -0.200 OA
ATOM     10  O   UNL d   1     -47.392  13.462  23.375  0.00  0.00    -0.200 OA
BRANCH   8  11
ATOM     11  N   UNL d   1     -46.914  13.323  22.985  0.00  0.00    -0.226 N 
ATOM     12  C   UNL d   1     -46.832  12.618  23.414  0.00  0.00     0.111 C 
ATOM     13  C   UNL d   1     -46.294  13.870  22.959  0.00  0.00     0.111 C 
ENDBRANCH   8  11
ENDBRANCH   1   8
BRANCH   3  14
ATOM     14  N   UNL d   1     -50.008  15.009  23.002  0.00  0.00    -0.114 N 
ATOM     15  O   UNL d   1     -50.413  14.801  23.690  0.00  0.00    -0.532 OA
ATOM     16  O   UNL d   1     -50.018  15.791  22.735  0.00  0.00    -0.532 OA
ENDBRANCH   3  14
TORSDOF 3
ENDMDL
MODEL 4
REMARK VINA RESULT:      -5.7      1.649      2.198
REMARK  3 active torsions:
REMARK  status: ('A' for Active; 'I' for Inactive)
REMARK    1  A    between atoms: C_2  and  S_1 
REMARK    2  A    between atoms: N_6  and  S_1 
REMARK    3  A    between atoms: N_3  and  C_5 
ROOT
ATOM      1  C   UNL d   1     -48.297  13.638  22.848  0.00  0.00     0.106 A 
ATOM      2  C   UNL d   1     -48.591  12.867  22.858  0.00  0.00     0.036 A 
ATOM      3  C   UNL d   1     -48.075  12.233  22.973  0.00  0.00     0.127 A 
ATOM      4  C   UNL d   1     -47.489  13.775  22.952  0.00  0.00     0.012 A 
ATOM      5  C   UNL d   1     -47.267  12.370  23.076  0.00  0.00     0.024 A 
ATOM      6  C   UNL d   1     -46.973  13.141  23.066  0.00  0.00     0.002 A 
ATOM      7  C   UNL d   1     -47.192  14.555  22.941  0.00  0.00     0.001 C 
ENDROOT
BRANCH   1   8
ATOM      8  S   UNL d   1     -48.814  14.284  22.732  0.00  0.00     0.272 S 
ATOM      9  O   UNL d   1     -48.613  14.879  22.195  0.00  0.00    -0.200 OA
ATOM     10  O   UNL d   1     -49.523  14.329  23.153  0.00  0.00    -0.200 OA
BRANCH   8  11
ATOM     11  N   UNL d   1     -49.442  14.820  22.763  0.00  0.00    -0.226 N 
ATOM     12  C   UNL d   1     -50.045  14.787  22.194  0.00  0.00     0.111 C 
ATOM     13  C   UNL d   1     -49.465  15.388  23.363  0.00  0.00     0.111 C 
ENDBRANCH   8  11
ENDBRANCH   1   8
BRANCH   3  14
ATOM     14  N   UNL d   1     -48.369  11.462  22.983  0.00  0.00    -0.114 N 
ATOM     15  O   UNL d   1     -48.442  11.042  22.277  0.00  0.00    -0.532 OA
ATOM     16  O   UNL d   1     -48.590  11.113  23.698  0.00  0.00    -0.532 OA
ENDBRANCH   3  14
TORSDOF 3
ENDMDL
