MODEL 1
REMARK VINA RESULT:      -8.1      0.000      0.000
REMARK  5 active torsions:
REMARK  status: ('A' for Active; 'I' for Inactive)
REMARK    1  A    between atoms: C_7  and  N_1 
REMARK    2  A    between atoms: C_15  and  C_3 
REMARK    3  A    between atoms: N_4  and  C_8 
REMARK    4  A    between atoms: C_10  and  C_11 
REMARK       I    between atoms: C_11  and  N_12 
REMARK    5  A    between atoms: N_12  and  C_15 
ROOT
ATOM      1  C   UNL d   1     -48.188  12.613  23.349  0.00  0.00     0.141 C 
ENDROOT
BRANCH   1   2
ATOM      2  N   UNL d   1     -47.529  12.125  23.269  0.00  0.00    -0.203 NA
ATOM      3  C   UNL d   1     -46.774  12.435  23.412  0.00  0.00     0.279 C 
ATOM      4  O   UNL d   1     -46.689  13.207  23.627  0.00  0.00    -0.265 OA
BRANCH   3   5
ATOM      5  C   UNL d   1     -46.114  11.939  23.330  0.00  0.00     0.059 A 
ATOM      6  C   UNL d   1     -45.470  12.191  22.880  0.00  0.00     0.027 A 
ATOM      7  C   UNL d   1     -44.827  11.706  22.801  0.00  0.00     0.127 A 
ATOM      8  C   UNL d   1     -45.499  12.929  22.521  0.00  0.00     0.002 C 
ATOM      9  C   UNL d   1     -44.804  10.959  23.167  0.00  0.00     0.024 A 
ATOM     10  C   UNL d   1     -45.439  10.700  23.617  0.00  0.00     0.002 A 
ATOM     11  C   UNL d   1     -46.086  11.185  23.697  0.00  0.00     0.005 A 
BRANCH   7  12
ATOM     12  N   UNL d   1     -44.195  11.964  22.353  0.00  0.00    -0.114 N 
ATOM     13  O   UNL d   1     -44.314  12.429  21.682  0.00  0.00    -0.532 OA
ATOM     14  O   UNL d   1     -43.421  11.759  22.572  0.00  0.00    -0.532 OA
ENDBRANCH   7  12
ENDBRANCH   3   5
ENDBRANCH   1   2
BRANCH   1  15
ATOM     15  C   UNL d   1     -48.942  12.282  23.412  0.00  0.00     0.191 A 
ATOM     16  N   UNL d   1     -49.653  12.636  23.215  0.00  0.00    -0.264 N 
ATOM     17  C   UNL d   1     -50.265  12.116  23.363  0.00  0.00     0.227 A 
ATOM     18  N   UNL d   1     -49.932  11.413  23.663  0.00  0.00    -0.117 NA
ATOM     19  S   UNL d   1     -51.064  12.250  23.243  0.00  0.00    -0.036 SA
ATOM     20  N   UNL d   1     -49.108  11.516  23.694  0.00  0.00    -0.126 NA
BRANCH  16  21
ATOM     21  C   UNL d   1     -49.738  13.402  22.911  0.00  0.00     0.068 A 
ATOM     22  C   UNL d   1     -49.810  14.031  23.431  0.00  0.00     0.018 A 
ATOM     23  C   UNL d   1     -49.894  14.794  23.123  0.00  0.00     0.001 A 
ATOM     24  C   UNL d   1     -49.969  15.442  23.635  0.00  0.00     0.000 C 
ATOM     25  C   UNL d   1     -49.905  14.921  22.300  0.00  0.00     0.000 A 
ATOM     26  C   UNL d   1     -49.832  14.279  21.805  0.00  0.00     0.002 A 
ATOM     27  C   UNL d   1     -49.747  13.513  22.095  0.00  0.00     0.018 A 
ENDBRANCH  16  21
ENDBRANCH   1  15
TORSDOF 5
ENDMDL
MODEL 2
REMARK VINA RESULT:      -7.2      1.449      2.246
REMARK  5 active torsions:
REMARK  status: ('A' for Active; 'I' for Inactive)
REMARK    1  A    between atoms: C_7  and  N_1 
REMARK    2  A    between atoms: C_15  and  C_3 
REMARK    3  A    between atoms: N_4  and  C_8 
REMARK    4  A    between atoms: C_10  and  C_11 
REMARK       I    between atoms: C_11  and  N_12 
REMARK    5  A    between atoms: N_12  and  C_15 
ROOT
ATOM      1  C   UNL d   1     -48.115  13.509  22.889  0.00  0.00     0.141 C 
ENDROOT
BRANCH   1   2
ATOM      2  N   UNL d   1     -47.311  13.451  22.716  0.00  0.00    -0.203 NA
ATOM      3  C   UNL d   1     -46.933  12.717  22.783  0.00  0.00     0.279 C 
ATOM      4  O   UNL d   1     -47.351  12.067  23.014  0.00  0.00    -0.265 OA
BRANCH   3   5
ATOM      5  C   UNL d   1     -46.124  12.664  22.608  0.00  0.00     0.059 A 
ATOM      6  C   UNL d   1     -45.678  12.049  22.929  0.00  0.00     0.027 A 
ATOM      7  C   UNL d   1     -44.888  11.999  22.758  0.00  0.00     0.127 A 
ATOM      8  C   UNL d   1     -46.048  11.501  23.417  0.00  0.00     0.002 C 
ATOM      9  C   UNL d   1     -44.520  12.558  22.263  0.00  0.00     0.024 A 
ATOM     10  C   UNL d   1     -44.955  13.173  21.940  0.00  0.00     0.002 A 
ATOM     11  C   UNL d   1     -45.747  13.225  22.110  0.00  0.00     0.005 A 
BRANCH   7  12
ATOM     12  N   UNL d   1     -44.456  11.387  23.081  0.00  0.00    -0.114 N 
ATOM     13  O   UNL d   1     -44.790  10.883  23.642  0.00  0.00    -0.532 OA
ATOM     14  O   UNL d   1     -43.670  11.265  22.844  0.00  0.00    -0.532 OA
ENDBRANCH   7  12
ENDBRANCH   3   5
ENDBRANCH   1   2
BRANCH   1  15
ATOM     15  C   UNL d   1     -48.477  14.250  22.926  0.00  0.00     0.191 A 
ATOM     16  N   UNL d   1     -49.281  14.403  22.965  0.00  0.00    -0.264 N 
ATOM     17  C   UNL d   1     -49.401  15.210  22.993  0.00  0.00     0.227 A 
ATOM     18  N   UNL d   1     -48.653  15.578  22.971  0.00  0.00    -0.117 NA
ATOM     19  S   UNL d   1     -50.121  15.599  23.035  0.00  0.00    -0.036 SA
ATOM     20  N   UNL d   1     -48.078  14.980  22.929  0.00  0.00    -0.126 NA
BRANCH  16  21
ATOM     21  C   UNL d   1     -49.877  13.829  22.974  0.00  0.00     0.068 A 
ATOM     22  C   UNL d   1     -50.165  13.541  22.264  0.00  0.00     0.018 A 
ATOM     23  C   UNL d   1     -50.761  12.968  22.278  0.00  0.00     0.001 A 
ATOM     24  C   UNL d   1     -51.064  12.665  21.568  0.00  0.00     0.000 C 
ATOM     25  C   UNL d   1     -51.063  12.687  23.001  0.00  0.00     0.000 A 
ATOM     26  C   UNL d   1     -50.760  12.989  23.695  0.00  0.00     0.002 A 
ATOM     27  C   UNL d   1     -50.167  13.560  23.697  0.00  0.00     0.018 A 
ENDBRANCH  16  21
ENDBRANCH   1  15
TORSDOF 5
ENDMDL
MODEL 3
REMARK VINA RESULT:      -6.8      9.200     10.214
REMARK  5 active torsions:
REMARK  status: ('A' for Active; 'I' for Inactive)
REMARK    1  A    between atoms: C_7  and  N_1 
REMARK    2  A    between atoms: C_15  and  C_3 
REMARK    3  A    between atoms: N_4  and  C_8 
REMARK    4  A    between atoms: C_10  and  C_11 
REMARK       I    between atoms: C_11  and  N_12 
REMARK    5  A    between atoms: N_12  and  C_15 
ROOT
ATOM      1  C   UNL d   1     -39.384  15.325  18.825  0.00  0.00     0.141 C 
ENDROOT
BRANCH   1   2
ATOM      2  N   UNL d   1     -39.468  15.327  19.645  0.00  0.00    -0.203 NA
ATOM      3  C   UNL d   1     -38.801  15.214  20.123  0.00  0.00     0.279 C 
ATOM      4  O   UNL d   1     -38.077  15.102  19.785  0.00  0.00    -0.265 OA
BRANCH   3   5
ATOM      5  C   UNL d   1     -38.891  15.216  20.947  0.00  0.00     0.059 A 
ATOM      6  C   UNL d   1     -38.773  14.519  21.372  0.00  0.00     0.027 A 
ATOM      7  C   UNL d   1     -38.861  14.523  22.176  0.00  0.00     0.127 A 
ATOM      8  C   UNL d   1     -38.567  13.835  20.965  0.00  0.00     0.002 C 
ATOM      9  C   UNL d   1     -39.070  15.219  22.582  0.00  0.00     0.024 A 
ATOM     10  C   UNL d   1     -39.190  15.917  22.169  0.00  0.00     0.002 A 
ATOM     11  C   UNL d   1     -39.101  15.915  21.361  0.00  0.00     0.005 A 
BRANCH   7  12
ATOM     12  N   UNL d   1     -38.742  13.828  22.586  0.00  0.00    -0.114 N 
ATOM     13  O   UNL d   1     -39.363  13.303  22.721  0.00  0.00    -0.532 OA
ATOM     14  O   UNL d   1     -37.985  13.642  22.874  0.00  0.00    -0.532 OA
ENDBRANCH   7  12
ENDBRANCH   3   5
ENDBRANCH   1   2
BRANCH   1  15
ATOM     15  C   UNL d   1     -40.033  15.495  18.344  0.00  0.00     0.191 A 
ATOM     16  N   UNL d   1     -40.054  15.483  17.525  0.00  0.00    -0.264 N 
ATOM     17  C   UNL d   1     -40.803  15.685  17.271  0.00  0.00     0.227 A 
ATOM     18  N   UNL d   1     -41.269  15.830  17.946  0.00  0.00    -0.117 NA
ATOM     19  S   UNL d   1     -41.061  15.740  16.495  0.00  0.00    -0.036 SA
ATOM     20  N   UNL d   1     -40.789  15.712  18.615  0.00  0.00    -0.126 NA
BRANCH  16  21
ATOM     21  C   UNL d   1     -39.415  15.294  17.033  0.00  0.00     0.068 A 
ATOM     22  C   UNL d   1     -39.258  14.507  16.868  0.00  0.00     0.018 A 
ATOM     23  C   UNL d   1     -38.618  14.324  16.376  0.00  0.00     0.001 A 
ATOM     24  C   UNL d   1     -38.445  13.532  16.199  0.00  0.00     0.000 C 
ATOM     25  C   UNL d   1     -38.143  14.927  16.054  0.00  0.00     0.000 A 
ATOM     26  C   UNL d   1     -38.321  15.702  16.234  0.00  0.00     0.002 A 
ATOM     27  C   UNL d   1     -38.953  15.901  16.721  0.00  0.00     0.018 A 
ENDBRANCH  16  21
ENDBRANCH   1  15
TORSDOF 5
ENDMDL
MODEL 4
REMARK VINA RESULT:      -6.6      7.619      9.940
REMARK  5 active torsions:
REMARK  status: ('A' for Active; 'I' for Inactive)
REMARK    1  A    between atoms: C_7  and  N_1 
REMARK    2  A    between atoms: C_15  and  C_3 
REMARK    3  A    between atoms: N_4  and  C_8 
REMARK    4  A    between atoms: C_10  and  C_11 
REMARK       I    between atoms: C_11  and  N_12 
REMARK    5  A    between atoms: N_12  and  C_15 
ROOT
ATOM      1  C   UNL d   1     -39.381  14.100  19.419  0.00  0.00     0.141 C 
ENDROOT
BRANCH   1   2
ATOM      2  N   UNL d   1     -38.930  13.887  18.763  0.00  0.00    -0.203 NA
ATOM      3  C   UNL d   1     -39.306  13.751  18.037  0.00  0.00     0.279 C 
ATOM      4  O   UNL d   1     -40.107  13.827  17.977  0.00  0.00    -0.265 OA
BRANCH   3   5
ATOM      5  C   UNL d   1     -38.848  13.537  17.380  0.00  0.00     0.059 A 
ATOM      6  C   UNL d   1     -38.797  14.050  16.736  0.00  0.00     0.027 A 
ATOM      7  C   UNL d   1     -38.349  13.839  16.095  0.00  0.00     0.127 A 
ATOM      8  C   UNL d   1     -39.203  14.763  16.761  0.00  0.00     0.002 C 
ATOM      9  C   UNL d   1     -37.940  13.115  16.076  0.00  0.00     0.024 A 
ATOM     10  C   UNL d   1     -37.984  12.599  16.711  0.00  0.00     0.002 A 
ATOM     11  C   UNL d   1     -38.433  12.808  17.356  0.00  0.00     0.005 A 
BRANCH   7  12
ATOM     12  N   UNL d   1     -38.305  14.354  15.463  0.00  0.00    -0.114 N 
ATOM     13  O   UNL d   1     -38.601  14.142  14.723  0.00  0.00    -0.532 OA
ATOM     14  O   UNL d   1     -37.959  15.102  15.561  0.00  0.00    -0.532 OA
ENDBRANCH   7  12
ENDBRANCH   3   5
ENDBRANCH   1   2
BRANCH   1  15
ATOM     15  C   UNL d   1     -39.012  14.251  20.142  0.00  0.00     0.191 A 
ATOM     16  N   UNL d   1     -39.348  14.601  20.802  0.00  0.00    -0.264 N 
ATOM     17  C   UNL d   1     -38.791  14.646  21.397  0.00  0.00     0.227 A 
ATOM     18  N   UNL d   1     -38.083  14.316  21.106  0.00  0.00    -0.117 NA
ATOM     19  S   UNL d   1     -38.897  14.956  22.148  0.00  0.00    -0.036 SA
ATOM     20  N   UNL d   1     -38.220  14.070  20.324  0.00  0.00    -0.126 NA
BRANCH  16  21
ATOM     21  C   UNL d   1     -40.130  14.867  20.856  0.00  0.00     0.068 A 
ATOM     22  C   UNL d   1     -40.726  14.326  21.008  0.00  0.00     0.018 A 
ATOM     23  C   UNL d   1     -41.506  14.596  21.061  0.00  0.00     0.001 A 
ATOM     24  C   UNL d   1     -42.121  14.061  21.214  0.00  0.00     0.000 C 
ATOM     25  C   UNL d   1     -41.683  15.403  20.962  0.00  0.00     0.000 A 
ATOM     26  C   UNL d   1     -41.072  15.922  20.812  0.00  0.00     0.002 A 
ATOM     27  C   UNL d   1     -40.291  15.669  20.756  0.00  0.00     0.018 A 
ENDBRANCH  16  21
ENDBRANCH   1  15
TORSDOF 5
ENDMDL
MODEL 5
REMARK VINA RESULT:      -5.6      9.132     10.146
REMARK  5 active torsions:
REMARK  status: ('A' for Active; 'I' for Inactive)
REMARK    1  A    between atoms: C_7  and  N_1 
REMARK    2  A    between atoms: C_15  and  C_3 
REMARK    3  A    between atoms: N_4  and  C_8 
REMARK    4  A    between atoms: C_10  and  C_11 
REMARK       I    between atoms: C_11  and  N_12 
REMARK    5  A    between atoms: N_12  and  C_15 
ROOT
ATOM      1  C   UNL d   1     -39.283  14.284  19.144  0.00  0.00     0.141 C 
ENDROOT
BRANCH   1   2
ATOM      2  N   UNL d   1     -38.866  14.501  19.821  0.00  0.00    -0.203 NA
ATOM      3  C   UNL d   1     -39.281  14.769  20.487  0.00  0.00     0.279 C 
ATOM      4  O   UNL d   1     -40.086  14.815  20.468  0.00  0.00    -0.265 OA
BRANCH   3   5
ATOM      5  C   UNL d   1     -38.856  14.986  21.165  0.00  0.00     0.059 A 
ATOM      6  C   UNL d   1     -38.897  14.512  21.839  0.00  0.00     0.027 A 
ATOM      7  C   UNL d   1     -38.482  14.726  22.501  0.00  0.00     0.127 A 
ATOM      8  C   UNL d   1     -39.359  13.833  21.822  0.00  0.00     0.002 C 
ATOM      9  C   UNL d   1     -38.015  15.414  22.512  0.00  0.00     0.024 A 
ATOM     10  C   UNL d   1     -37.969  15.892  21.847  0.00  0.00     0.002 A 
ATOM     11  C   UNL d   1     -38.385  15.680  21.181  0.00  0.00     0.005 A 
BRANCH   7  12
ATOM     12  N   UNL d   1     -38.529  14.250  23.162  0.00  0.00    -0.114 N 
ATOM     13  O   UNL d   1     -37.941  13.695  23.328  0.00  0.00    -0.532 OA
ATOM     14  O   UNL d   1     -39.175  14.321  23.678  0.00  0.00    -0.532 OA
ENDBRANCH   7  12
ENDBRANCH   3   5
ENDBRANCH   1   2
BRANCH   1  15
ATOM     15  C   UNL d   1     -38.908  13.851  18.550  0.00  0.00     0.191 A 
ATOM     16  N   UNL d   1     -38.913  14.012  17.746  0.00  0.00    -0.264 N 
ATOM     17  C   UNL d   1     -38.474  13.446  17.355  0.00  0.00     0.227 A 
ATOM     18  N   UNL d   1     -38.183  12.912  17.925  0.00  0.00    -0.117 NA
ATOM     19  S   UNL d   1     -38.337  13.401  16.548  0.00  0.00    -0.036 SA
ATOM     20  N   UNL d   1     -38.454  13.164  18.670  0.00  0.00    -0.126 NA
BRANCH  16  21
ATOM     21  C   UNL d   1     -39.302  14.649  17.389  0.00  0.00     0.068 A 
ATOM     22  C   UNL d   1     -40.116  14.624  17.306  0.00  0.00     0.018 A 
ATOM     23  C   UNL d   1     -40.501  15.263  16.948  0.00  0.00     0.001 A 
ATOM     24  C   UNL d   1     -41.325  15.253  16.856  0.00  0.00     0.000 C 
ATOM     25  C   UNL d   1     -40.068  15.920  16.677  0.00  0.00     0.000 A 
ATOM     26  C   UNL d   1     -39.259  15.922  16.771  0.00  0.00     0.002 A 
ATOM     27  C   UNL d   1     -38.861  15.294  17.125  0.00  0.00     0.018 A 
ENDBRANCH  16  21
ENDBRANCH   1  15
TORSDOF 5
ENDMDL
