MODEL 1
REMARK VINA RESULT:      -5.7      0.000      0.000
REMARK  1 active torsions:
REMARK  status: ('A' for Active; 'I' for Inactive)
REMARK       I    between atoms: C_2  and  N_1 
REMARK    1  A    between atoms: C_4  and  C_2 
ROOT
ATOM      1  N   UNL d   1      57.007  -0.313  31.507  0.00  0.00    -0.272 N 
ATOM      2  C   UNL d   1      57.389  -0.730  30.903  0.00  0.00     0.287 C 
ATOM      3  C   UNL d   1      56.549  -0.636  32.114  0.00  0.00     0.067 A 
ATOM      4  C   UNL d   1      57.027   0.491  31.591  0.00  0.00     0.083 A 
ATOM      5  O   UNL d   1      57.329  -1.554  30.872  0.00  0.00    -0.264 OA
ATOM      6  C   UNL d   1      56.279  -0.024  32.585  0.00  0.00     0.018 A 
ATOM      7  C   UNL d   1      56.572   0.682  32.267  0.00  0.00     0.021 A 
ATOM      8  C   UNL d   1      56.344  -1.404  32.297  0.00  0.00     0.018 A 
ATOM      9  C   UNL d   1      55.803  -0.171  33.243  0.00  0.00     0.002 A 
ATOM     10  C   UNL d   1      55.869  -1.566  32.952  0.00  0.00     0.002 A 
ATOM     11  C   UNL d   1      55.600  -0.949  33.423  0.00  0.00     0.000 A 
ENDROOT
BRANCH   2  12
ATOM     12  C   UNL d   1      57.830  -0.324  30.331  0.00  0.00     0.156 A 
ATOM     13  O   UNL d   1      57.659   0.322  29.842  0.00  0.00    -0.300 OA
ATOM     14  C   UNL d   1      58.320   0.477  29.386  0.00  0.00     0.123 A 
ATOM     15  C   UNL d   1      58.903  -0.061  29.580  0.00  0.00     0.029 A 
ATOM     16  C   UNL d   1      58.608  -0.560  30.164  0.00  0.00     0.032 A 
ENDBRANCH   2  12
TORSDOF 1
ENDMDL
MODEL 2
REMARK VINA RESULT:      -5.1      0.772      1.592
REMARK  1 active torsions:
REMARK  status: ('A' for Active; 'I' for Inactive)
REMARK       I    between atoms: C_2  and  N_1 
REMARK    1  A    between atoms: C_4  and  C_2 
ROOT
ATOM      1  N   UNL d   1      56.566  -0.562  32.084  0.00  0.00    -0.272 N 
ATOM      2  C   UNL d   1      57.044  -0.141  31.556  0.00  0.00     0.287 C 
ATOM      3  C   UNL d   1      56.104  -0.243  32.691  0.00  0.00     0.067 A 
ATOM      4  C   UNL d   1      56.480  -1.366  32.083  0.00  0.00     0.083 A 
ATOM      5  O   UNL d   1      57.089   0.682  31.610  0.00  0.00    -0.264 OA
ATOM      6  C   UNL d   1      55.724  -0.858  33.075  0.00  0.00     0.018 A 
ATOM      7  C   UNL d   1      55.952  -1.561  32.702  0.00  0.00     0.021 A 
ATOM      8  C   UNL d   1      55.983   0.523  32.942  0.00  0.00     0.018 A 
ATOM      9  C   UNL d   1      55.219  -0.715  33.711  0.00  0.00     0.002 A 
ATOM     10  C   UNL d   1      55.481   0.682  33.577  0.00  0.00     0.002 A 
ATOM     11  C   UNL d   1      55.100   0.061  33.960  0.00  0.00     0.000 A 
ENDROOT
BRANCH   2  12
ATOM     12  C   UNL d   1      57.475  -0.543  30.974  0.00  0.00     0.156 A 
ATOM     13  O   UNL d   1      57.467  -1.327  30.707  0.00  0.00    -0.300 OA
ATOM     14  C   UNL d   1      58.024  -1.399  30.114  0.00  0.00     0.123 A 
ATOM     15  C   UNL d   1      58.383  -0.675  30.003  0.00  0.00     0.029 A 
ATOM     16  C   UNL d   1      58.050  -0.139  30.531  0.00  0.00     0.032 A 
ENDBRANCH   2  12
TORSDOF 1
ENDMDL
MODEL 3
REMARK VINA RESULT:      -3.0      1.959      4.039
REMARK  1 active torsions:
REMARK  status: ('A' for Active; 'I' for Inactive)
REMARK       I    between atoms: C_2  and  N_1 
REMARK    1  A    between atoms: C_4  and  C_2 
ROOT
ATOM      1  N   UNL d   1      58.943  -1.311  29.494  0.00  0.00    -0.272 N 
ATOM      2  C   UNL d   1      58.226  -1.288  29.906  0.00  0.00     0.287 C 
ATOM      3  C   UNL d   1      59.309  -1.984  29.182  0.00  0.00     0.067 A 
ATOM      4  C   UNL d   1      59.400  -0.664  29.334  0.00  0.00     0.083 A 
ATOM      5  O   UNL d   1      57.805  -1.986  30.037  0.00  0.00    -0.264 OA
ATOM      6  C   UNL d   1      60.006  -1.752  28.821  0.00  0.00     0.018 A 
ATOM      7  C   UNL d   1      60.071  -0.932  28.910  0.00  0.00     0.021 A 
ATOM      8  C   UNL d   1      59.098  -2.771  29.180  0.00  0.00     0.018 A 
ATOM      9  C   UNL d   1      60.499  -2.303  28.455  0.00  0.00     0.002 A 
ATOM     10  C   UNL d   1      59.581  -3.334  28.818  0.00  0.00     0.002 A 
ATOM     11  C   UNL d   1      60.281  -3.097  28.456  0.00  0.00     0.000 A 
ENDROOT
BRANCH   2  12
ATOM     12  C   UNL d   1      57.930  -0.566  30.185  0.00  0.00     0.156 A 
ATOM     13  O   UNL d   1      57.813   0.172  29.828  0.00  0.00    -0.300 OA
ATOM     14  C   UNL d   1      57.501   0.679  30.388  0.00  0.00     0.123 A 
ATOM     15  C   UNL d   1      57.419   0.273  31.091  0.00  0.00     0.029 A 
ATOM     16  C   UNL d   1      57.682  -0.498  30.974  0.00  0.00     0.032 A 
ENDBRANCH   2  12
TORSDOF 1
ENDMDL
MODEL 4
REMARK VINA RESULT:      -2.7      2.166      3.549
REMARK  1 active torsions:
REMARK  status: ('A' for Active; 'I' for Inactive)
REMARK       I    between atoms: C_2  and  N_1 
REMARK    1  A    between atoms: C_4  and  C_2 
ROOT
ATOM      1  N   UNL d   1      58.930  -1.369  29.468  0.00  0.00    -0.272 N 
ATOM      2  C   UNL d   1      58.766  -2.177  29.538  0.00  0.00     0.287 C 
ATOM      3  C   UNL d   1      58.517  -0.750  29.830  0.00  0.00     0.067 A 
ATOM      4  C   UNL d   1      59.532  -1.060  29.025  0.00  0.00     0.083 A 
ATOM      5  O   UNL d   1      58.135  -2.429  30.007  0.00  0.00    -0.264 OA
ATOM      6  C   UNL d   1      58.867  -0.045  29.610  0.00  0.00     0.018 A 
ATOM      7  C   UNL d   1      59.500  -0.227  29.108  0.00  0.00     0.021 A 
ATOM      8  C   UNL d   1      57.872  -0.740  30.329  0.00  0.00     0.018 A 
ATOM      9  C   UNL d   1      58.578   0.678  29.884  0.00  0.00     0.002 A 
ATOM     10  C   UNL d   1      57.572  -0.025  30.611  0.00  0.00     0.002 A 
ATOM     11  C   UNL d   1      57.926   0.682  30.387  0.00  0.00     0.000 A 
ENDROOT
BRANCH   2  12
ATOM     12  C   UNL d   1      59.234  -2.732  29.138  0.00  0.00     0.156 A 
ATOM     13  O   UNL d   1      60.044  -2.770  28.970  0.00  0.00    -0.300 OA
ATOM     14  C   UNL d   1      60.185  -3.459  28.553  0.00  0.00     0.123 A 
ATOM     15  C   UNL d   1      59.477  -3.854  28.455  0.00  0.00     0.029 A 
ATOM     16  C   UNL d   1      58.884  -3.411  28.814  0.00  0.00     0.032 A 
ENDBRANCH   2  12
TORSDOF 1
ENDMDL
