MODEL 1
REMARK VINA RESULT:      -3.4      0.000      0.000
REMARK  7 active torsions:
REMARK  status: ('A' for Active; 'I' for Inactive)
REMARK    1  A    between atoms: C_12  and  C_1 
REMARK    2  A    between atoms: C_14  and  C_4 
REMARK       I    between atoms: C_10  and  N_9 
REMARK    3  A    between atoms: O_22  and  C_10 
REMARK    4  A    between atoms: O_23  and  C_12 
REMARK    5  A    between atoms: N_13  and  C_14 
REMARK    6  A    between atoms: C_27  and  O_22 
REMARK    7  A    between atoms: C_28  and  O_23 
ROOT
ATOM      1  C   UNL d   1     -39.615  14.333  19.154  0.00  0.00     0.088 A 
ATOM      2  C   UNL d   1     -39.672  14.410  19.968  0.00  0.00     0.034 A 
ATOM      3  C   UNL d   1     -38.907  14.388  20.291  0.00  0.00     0.100 A 
ATOM      4  C   UNL d   1     -40.327  14.500  20.471  0.00  0.00     0.059 A 
ATOM      5  C   UNL d   1     -38.801  14.261  18.962  0.00  0.00     0.105 A 
ATOM      6  O   UNL d   1     -38.374  14.296  19.661  0.00  0.00    -0.307 OA
ATOM      7  C   UNL d   1     -40.218  14.565  21.279  0.00  0.00     0.197 A 
ATOM      8  C   UNL d   1     -38.808  14.455  21.106  0.00  0.00     0.026 A 
ATOM      9  C   UNL d   1     -39.458  14.543  21.596  0.00  0.00     0.041 A 
ATOM     10  O   UNL d   1     -40.871  14.655  21.786  0.00  0.00    -0.286 OA
ATOM     11  C   UNL d   1     -38.496  14.173  18.207  0.00  0.00     0.027 C 
ATOM     12  C   UNL d   1     -38.046  14.433  21.427  0.00  0.00     0.002 A 
ATOM     13  C   UNL d   1     -39.353  14.610  22.411  0.00  0.00     0.003 A 
ATOM     14  C   UNL d   1     -38.600  14.588  22.728  0.00  0.00     0.000 A 
ATOM     15  C   UNL d   1     -37.940  14.499  22.231  0.00  0.00     0.000 A 
ENDROOT
BRANCH   4  16
ATOM     16  C   UNL d   1     -41.092  14.522  20.148  0.00  0.00     0.084 C 
BRANCH  16  17
ATOM     17  N   UNL d   1     -41.705  14.110  20.528  0.00  0.00    -0.300 N 
ATOM     18  C   UNL d   1     -42.378  14.519  20.770  0.00  0.00     0.100 A 
ATOM     19  C   UNL d   1     -42.992  14.106  21.151  0.00  0.00     0.104 A 
ATOM     20  N   UNL d   1     -42.923  13.297  21.283  0.00  0.00    -0.249 N 
ATOM     21  C   UNL d   1     -42.244  12.893  21.037  0.00  0.00     0.104 A 
ATOM     22  C   UNL d   1     -43.515  12.900  21.650  0.00  0.00     0.378 C 
ATOM     23  C   UNL d   1     -41.640  13.299  20.662  0.00  0.00     0.100 A 
ATOM     24  O   UNL d   1     -43.457  12.087  21.787  0.00  0.00    -0.237 OA
BRANCH  22  25
ATOM     25  O   UNL d   1     -44.200  13.300  21.899  0.00  0.00    -0.257 OA
BRANCH  25  26
ATOM     26  C   UNL d   1     -44.834  12.860  22.199  0.00  0.00     0.128 C 
ATOM     27  C   UNL d   1     -45.566  13.228  22.315  0.00  0.00     0.029 C 
ENDBRANCH  25  26
ENDBRANCH  22  25
ENDBRANCH  16  17
ENDBRANCH   4  16
BRANCH   1  28
ATOM     28  C   UNL d   1     -40.249  14.328  18.633  0.00  0.00     0.302 C 
ATOM     29  O   UNL d   1     -40.630  13.630  18.435  0.00  0.00    -0.259 OA
BRANCH  28  30
ATOM     30  O   UNL d   1     -40.505  15.045  18.303  0.00  0.00    -0.271 OA
BRANCH  30  31
ATOM     31  C   UNL d   1     -40.875  15.049  17.566  0.00  0.00     0.126 C 
ATOM     32  C   UNL d   1     -41.094  15.769  17.217  0.00  0.00     0.029 C 
ENDBRANCH  30  31
ENDBRANCH  28  30
ENDBRANCH   1  28
TORSDOF 7
ENDMDL
MODEL 2
REMARK VINA RESULT:      -2.2      0.821      2.784
REMARK  7 active torsions:
REMARK  status: ('A' for Active; 'I' for Inactive)
REMARK    1  A    between atoms: C_12  and  C_1 
REMARK    2  A    between atoms: C_14  and  C_4 
REMARK       I    between atoms: C_10  and  N_9 
REMARK    3  A    between atoms: O_22  and  C_10 
REMARK    4  A    between atoms: O_23  and  C_12 
REMARK    5  A    between atoms: N_13  and  C_14 
REMARK    6  A    between atoms: C_27  and  O_22 
REMARK    7  A    between atoms: C_28  and  O_23 
ROOT
ATOM      1  C   UNL d   1     -39.329  14.046  20.802  0.00  0.00     0.088 A 
ATOM      2  C   UNL d   1     -39.844  14.239  20.195  0.00  0.00     0.034 A 
ATOM      3  C   UNL d   1     -39.457  14.119  19.469  0.00  0.00     0.100 A 
ATOM      4  C   UNL d   1     -40.628  14.515  20.200  0.00  0.00     0.059 A 
ATOM      5  C   UNL d   1     -38.606  13.799  20.453  0.00  0.00     0.105 A 
ATOM      6  O   UNL d   1     -38.692  13.846  19.639  0.00  0.00    -0.307 OA
ATOM      7  C   UNL d   1     -41.015  14.666  19.496  0.00  0.00     0.197 A 
ATOM      8  C   UNL d   1     -39.856  14.274  18.765  0.00  0.00     0.026 A 
ATOM      9  C   UNL d   1     -40.629  14.545  18.778  0.00  0.00     0.041 A 
ATOM     10  O   UNL d   1     -41.799  14.942  19.497  0.00  0.00    -0.286 OA
ATOM     11  C   UNL d   1     -37.940  13.556  20.861  0.00  0.00     0.027 C 
ATOM     12  C   UNL d   1     -39.470  14.153  18.044  0.00  0.00     0.002 A 
ATOM     13  C   UNL d   1     -41.022  14.699  18.070  0.00  0.00     0.003 A 
ATOM     14  C   UNL d   1     -40.641  14.579  17.358  0.00  0.00     0.000 A 
ATOM     15  C   UNL d   1     -39.857  14.304  17.345  0.00  0.00     0.000 A 
ENDROOT
BRANCH   4  16
ATOM     16  C   UNL d   1     -41.014  14.636  20.926  0.00  0.00     0.084 C 
BRANCH  16  17
ATOM     17  N   UNL d   1     -41.724  14.232  21.079  0.00  0.00    -0.300 N 
ATOM     18  C   UNL d   1     -42.399  14.661  21.276  0.00  0.00     0.100 A 
ATOM     19  C   UNL d   1     -43.110  14.256  21.430  0.00  0.00     0.104 A 
ATOM     20  N   UNL d   1     -43.133  13.436  21.384  0.00  0.00    -0.249 N 
ATOM     21  C   UNL d   1     -42.451  13.011  21.186  0.00  0.00     0.104 A 
ATOM     22  C   UNL d   1     -43.818  13.046  21.532  0.00  0.00     0.378 C 
ATOM     23  C   UNL d   1     -41.751  13.409  21.035  0.00  0.00     0.100 A 
ATOM     24  O   UNL d   1     -43.853  12.222  21.490  0.00  0.00    -0.237 OA
BRANCH  22  25
ATOM     25  O   UNL d   1     -44.507  13.466  21.732  0.00  0.00    -0.257 OA
BRANCH  25  26
ATOM     26  C   UNL d   1     -45.215  13.049  21.836  0.00  0.00     0.128 C 
ATOM     27  C   UNL d   1     -45.815  13.376  22.303  0.00  0.00     0.029 C 
ENDBRANCH  25  26
ENDBRANCH  22  25
ENDBRANCH  16  17
ENDBRANCH   4  16
BRANCH   1  28
ATOM     28  C   UNL d   1     -39.502  14.090  21.603  0.00  0.00     0.302 C 
ATOM     29  O   UNL d   1     -39.816  13.448  22.005  0.00  0.00    -0.259 OA
BRANCH  28  30
ATOM     30  O   UNL d   1     -39.355  14.798  22.009  0.00  0.00    -0.271 OA
BRANCH  30  31
ATOM     31  C   UNL d   1     -39.033  14.777  22.767  0.00  0.00     0.126 C 
ATOM     32  C   UNL d   1     -39.008  15.468  23.225  0.00  0.00     0.029 C 
ENDBRANCH  30  31
ENDBRANCH  28  30
ENDBRANCH   1  28
TORSDOF 7
ENDMDL
