MODEL 1
REMARK VINA RESULT:      -4.8      0.000      0.000
REMARK  0 active torsions:
REMARK  status: ('A' for Active; 'I' for Inactive)
ROOT
ATOM      1  N   UNL d   1     -41.861-122.739 -55.125  0.00  0.00    -0.169 NA
ATOM      2  C   UNL d   1     -41.497-123.077 -54.469  0.00  0.00     0.199 A 
ATOM      3  C   UNL d   1     -41.494-122.704 -53.733  0.00  0.00     0.130 A 
ATOM      4  N   UNL d   1     -42.232-121.621 -54.293  0.00  0.00    -0.151 NA
ATOM      5  C   UNL d   1     -41.862-121.979 -53.651  0.00  0.00     0.292 A 
ATOM      6  C   UNL d   1     -42.235-121.995 -55.029  0.00  0.00     0.373 A 
ATOM      7  O   UNL d   1     -41.861-121.601 -52.912  0.00  0.00    -0.264 OA
ATOM      8  O   UNL d   1     -42.605-121.643 -55.682  0.00  0.00    -0.242 OA
ATOM      9  N   UNL d   1     -41.123-123.817 -54.557  0.00  0.00    -0.126 N 
ATOM     10 BR   UNL d   1     -41.124-123.060 -53.086  0.00  0.00    -0.041 Br
ENDROOT
TORSDOF 0
ENDMDL
MODEL 2
REMARK VINA RESULT:      -4.6      1.183      1.886
REMARK  0 active torsions:
REMARK  status: ('A' for Active; 'I' for Inactive)
ROOT
ATOM      1  N   UNL d   1     -41.250-123.089 -53.263  0.00  0.00    -0.169 NA
ATOM      2  C   UNL d   1     -41.394-123.135 -54.072  0.00  0.00     0.199 A 
ATOM      3  C   UNL d   1     -41.773-122.526 -54.480  0.00  0.00     0.130 A 
ATOM      4  N   UNL d   1     -41.878-121.792 -53.263  0.00  0.00    -0.151 NA
ATOM      5  C   UNL d   1     -42.012-121.859 -54.073  0.00  0.00     0.292 A 
ATOM      6  C   UNL d   1     -41.499-122.401 -52.855  0.00  0.00     0.373 A 
ATOM      7  O   UNL d   1     -42.393-121.245 -54.480  0.00  0.00    -0.264 OA
ATOM      8  O   UNL d   1     -41.360-122.343 -52.040  0.00  0.00    -0.242 OA
ATOM      9  N   UNL d   1     -41.148-123.817 -54.484  0.00  0.00    -0.126 N 
ATOM     10 BR   UNL d   1     -41.908-122.590 -55.292  0.00  0.00    -0.041 Br
ENDROOT
TORSDOF 0
ENDMDL
MODEL 3
REMARK VINA RESULT:      -4.4      1.019      1.567
REMARK  0 active torsions:
REMARK  status: ('A' for Active; 'I' for Inactive)
ROOT
ATOM      1  N   UNL d   1     -42.247-121.659 -54.162  0.00  0.00    -0.169 NA
ATOM      2  C   UNL d   1     -41.869-122.108 -53.585  0.00  0.00     0.199 A 
ATOM      3  C   UNL d   1     -41.496-122.822 -53.765  0.00  0.00     0.130 A 
ATOM      4  N   UNL d   1     -41.871-122.659 -55.130  0.00  0.00    -0.151 NA
ATOM      5  C   UNL d   1     -41.500-123.091 -54.536  0.00  0.00     0.292 A 
ATOM      6  C   UNL d   1     -42.245-121.945 -54.950  0.00  0.00     0.373 A 
ATOM      7  O   UNL d   1     -41.126-123.809 -54.721  0.00  0.00    -0.264 OA
ATOM      8  O   UNL d   1     -42.621-121.502 -55.540  0.00  0.00    -0.242 OA
ATOM      9  N   UNL d   1     -41.867-121.829 -52.799  0.00  0.00    -0.126 N 
ATOM     10 BR   UNL d   1     -41.123-123.258 -53.172  0.00  0.00    -0.041 Br
ENDROOT
TORSDOF 0
ENDMDL
MODEL 4
REMARK VINA RESULT:      -3.7      2.375      2.751
REMARK  0 active torsions:
REMARK  status: ('A' for Active; 'I' for Inactive)
ROOT
ATOM      1  N   UNL d   1     -41.630-123.817 -52.005  0.00  0.00    -0.169 NA
ATOM      2  C   UNL d   1     -41.467-123.395 -51.318  0.00  0.00     0.199 A 
ATOM      3  C   UNL d   1     -41.298-122.588 -51.334  0.00  0.00     0.130 A 
ATOM      4  N   UNL d   1     -41.453-122.596 -52.751  0.00  0.00    -0.151 NA
ATOM      5  C   UNL d   1     -41.293-122.194 -52.050  0.00  0.00     0.292 A 
ATOM      6  C   UNL d   1     -41.622-123.403 -52.735  0.00  0.00     0.373 A 
ATOM      7  O   UNL d   1     -41.123-121.382 -52.070  0.00  0.00    -0.264 OA
ATOM      8  O   UNL d   1     -41.785-123.817 -53.434  0.00  0.00    -0.242 OA
ATOM      9  N   UNL d   1     -41.474-123.800 -50.589  0.00  0.00    -0.126 N 
ATOM     10 BR   UNL d   1     -41.137-122.181 -50.633  0.00  0.00    -0.041 Br
ENDROOT
TORSDOF 0
ENDMDL
MODEL 5
REMARK VINA RESULT:      -3.3      3.394      3.847
REMARK  0 active torsions:
REMARK  status: ('A' for Active; 'I' for Inactive)
ROOT
ATOM      1  N   UNL d   1     -41.123-122.762 -50.910  0.00  0.00    -0.169 NA
ATOM      2  C   UNL d   1     -41.514-123.053 -50.247  0.00  0.00     0.199 A 
ATOM      3  C   UNL d   1     -42.278-122.809 -50.051  0.00  0.00     0.130 A 
ATOM      4  N   UNL d   1     -42.286-121.960 -51.196  0.00  0.00    -0.151 NA
ATOM      5  C   UNL d   1     -42.658-122.265 -50.527  0.00  0.00     0.292 A 
ATOM      6  C   UNL d   1     -41.523-122.204 -51.391  0.00  0.00     0.373 A 
ATOM      7  O   UNL d   1     -43.426-122.017 -50.334  0.00  0.00    -0.264 OA
ATOM      8  O   UNL d   1     -41.139-121.904 -52.062  0.00  0.00    -0.242 OA
ATOM      9  N   UNL d   1     -41.123-123.609 -49.763  0.00  0.00    -0.126 N 
ATOM     10 BR   UNL d   1     -42.654-123.112 -49.381  0.00  0.00    -0.041 Br
ENDROOT
TORSDOF 0
ENDMDL
MODEL 6
REMARK VINA RESULT:      -2.0      5.353      6.018
REMARK  0 active torsions:
REMARK  status: ('A' for Active; 'I' for Inactive)
ROOT
ATOM      1  N   UNL d   1     -41.150-123.080 -48.506  0.00  0.00    -0.169 NA
ATOM      2  C   UNL d   1     -41.563-123.114 -49.217  0.00  0.00     0.199 A 
ATOM      3  C   UNL d   1     -42.350-123.358 -49.250  0.00  0.00     0.130 A 
ATOM      4  N   UNL d   1     -42.339-123.544 -47.837  0.00  0.00    -0.151 NA
ATOM      5  C   UNL d   1     -42.732-123.571 -48.560  0.00  0.00     0.292 A 
ATOM      6  C   UNL d   1     -41.552-123.301 -47.804  0.00  0.00     0.373 A 
ATOM      7  O   UNL d   1     -43.525-123.817 -48.589  0.00  0.00    -0.264 OA
ATOM      8  O   UNL d   1     -41.146-123.270 -47.081  0.00  0.00    -0.242 OA
ATOM      9  N   UNL d   1     -41.170-122.896 -49.919  0.00  0.00    -0.126 N 
ATOM     10 BR   UNL d   1     -42.748-123.386 -49.973  0.00  0.00    -0.041 Br
ENDROOT
TORSDOF 0
ENDMDL
