MODEL 1
REMARK VINA RESULT:      -0.5      0.000      0.000
REMARK  9 active torsions:
REMARK  status: ('A' for Active; 'I' for Inactive)
REMARK    1  A    between atoms: C_12  and  C_1 
REMARK       I    between atoms: C_4  and  N_11 
REMARK    2  A    between atoms: C_5  and  C_4 
REMARK    3  A    between atoms: O_18  and  C_6 
REMARK    4  A    between atoms: O_19  and  C_7 
REMARK    5  A    between atoms: O_20  and  C_8 
REMARK    6  A    between atoms: N_11  and  C_15 
REMARK    7  A    between atoms: C_26  and  O_18 
REMARK    8  A    between atoms: C_28  and  O_19 
REMARK    9  A    between atoms: C_27  and  O_20 
ROOT
ATOM      1  C   UNL d   1      32.647  19.622 -22.110  0.00  0.00     0.279 C 
ATOM      2  N   UNL d   1      32.845  19.269 -22.833  0.00  0.00    -0.208 NA
ATOM      3  O   UNL d   1      32.303  19.173 -21.510  0.00  0.00    -0.265 OA
ENDROOT
BRANCH   1   4
ATOM      4  C   UNL d   1      32.795  20.423 -21.992  0.00  0.00     0.062 A 
ATOM      5  C   UNL d   1      32.920  20.919 -22.641  0.00  0.00     0.032 A 
ATOM      6  C   UNL d   1      33.068  21.718 -22.523  0.00  0.00     0.125 A 
ATOM      7  C   UNL d   1      33.092  22.027 -21.759  0.00  0.00     0.145 A 
ATOM      8  C   UNL d   1      32.968  21.533 -21.115  0.00  0.00     0.125 A 
ATOM      9  C   UNL d   1      32.821  20.738 -21.233  0.00  0.00     0.032 A 
BRANCH   6  10
ATOM     10  O   UNL d   1      33.193  22.217 -23.176  0.00  0.00    -0.303 OA
BRANCH  10  11
ATOM     11  C   UNL d   1      32.879  22.010 -23.915  0.00  0.00     0.123 C 
ATOM     12  C   UNL d   1      33.024  22.497 -24.574  0.00  0.00     0.029 C 
ENDBRANCH  10  11
ENDBRANCH   6  10
BRANCH   7  13
ATOM     13  O   UNL d   1      33.241  22.831 -21.642  0.00  0.00    -0.301 OA
BRANCH  13  14
ATOM     14  C   UNL d   1      32.694  23.389 -21.897  0.00  0.00     0.123 C 
ATOM     15  C   UNL d   1      32.040  23.571 -21.425  0.00  0.00     0.029 C 
ENDBRANCH  13  14
ENDBRANCH   7  13
BRANCH   8  16
ATOM     16  O   UNL d   1      32.993  21.844 -20.342  0.00  0.00    -0.303 OA
BRANCH  16  17
ATOM     17  C   UNL d   1      32.983  21.329 -19.695  0.00  0.00     0.123 C 
ATOM     18  C   UNL d   1      32.851  21.632 -18.934  0.00  0.00     0.029 C 
ENDBRANCH  16  17
ENDBRANCH   8  16
ENDBRANCH   1   4
BRANCH   2  19
ATOM     19  C   UNL d   1      32.697  18.459 -22.957  0.00  0.00     0.085 A 
ATOM     20  C   UNL d   1      32.000  18.227 -23.340  0.00  0.00     0.022 A 
ATOM     21  C   UNL d   1      31.850  17.428 -23.464  0.00  0.00     0.037 A 
ATOM     22  C   UNL d   1      32.389  16.857 -23.210  0.00  0.00     0.003 A 
ATOM     23  C   UNL d   1      33.086  17.093 -22.827  0.00  0.00     0.002 A 
ATOM     24  C   UNL d   1      33.241  17.888 -22.700  0.00  0.00     0.019 A 
BRANCH  21  25
ATOM     25  C   UNL d   1      31.157  17.192 -23.846  0.00  0.00     0.162 A 
ATOM     26  N   UNL d   1      30.485  17.612 -24.073  0.00  0.00    -0.225 NA
ATOM     27  C   UNL d   1      29.966  17.082 -24.436  0.00  0.00     0.101 A 
ATOM     28  C   UNL d   1      29.215  17.185 -24.771  0.00  0.00     0.021 A 
ATOM     29  C   UNL d   1      30.320  16.345 -24.428  0.00  0.00     0.101 A 
ATOM     30  C   UNL d   1      28.828  16.537 -25.096  0.00  0.00     0.002 A 
ATOM     31  C   UNL d   1      29.188  15.788 -25.088  0.00  0.00     0.002 A 
ATOM     32  C   UNL d   1      29.927  15.693 -24.757  0.00  0.00     0.021 A 
ATOM     33  N   UNL d   1      31.054  16.411 -24.065  0.00  0.00    -0.225 NA
ENDBRANCH  21  25
ENDBRANCH   2  19
TORSDOF 9
ENDMDL
MODEL 2
REMARK VINA RESULT:      -0.4      1.008      2.257
REMARK  9 active torsions:
REMARK  status: ('A' for Active; 'I' for Inactive)
REMARK    1  A    between atoms: C_12  and  C_1 
REMARK       I    between atoms: C_4  and  N_11 
REMARK    2  A    between atoms: C_5  and  C_4 
REMARK    3  A    between atoms: O_18  and  C_6 
REMARK    4  A    between atoms: O_19  and  C_7 
REMARK    5  A    between atoms: O_20  and  C_8 
REMARK    6  A    between atoms: N_11  and  C_15 
REMARK    7  A    between atoms: C_26  and  O_18 
REMARK    8  A    between atoms: C_28  and  O_19 
REMARK    9  A    between atoms: C_27  and  O_20 
ROOT
ATOM      1  C   UNL d   1      32.595  19.265 -23.132  0.00  0.00     0.279 C 
ATOM      2  N   UNL d   1      32.864  19.021 -23.877  0.00  0.00    -0.208 NA
ATOM      3  O   UNL d   1      32.168  18.745 -22.655  0.00  0.00    -0.265 OA
ENDROOT
BRANCH   1   4
ATOM      4  C   UNL d   1      32.756  20.028 -22.870  0.00  0.00     0.062 A 
ATOM      5  C   UNL d   1      32.777  20.190 -22.060  0.00  0.00     0.032 A 
ATOM      6  C   UNL d   1      32.938  20.952 -21.799  0.00  0.00     0.125 A 
ATOM      7  C   UNL d   1      33.079  21.556 -22.343  0.00  0.00     0.145 A 
ATOM      8  C   UNL d   1      33.058  21.394 -23.147  0.00  0.00     0.125 A 
ATOM      9  C   UNL d   1      32.898  20.635 -23.406  0.00  0.00     0.032 A 
BRANCH   6  10
ATOM     10  O   UNL d   1      32.959  21.115 -20.984  0.00  0.00    -0.303 OA
BRANCH  10  11
ATOM     11  C   UNL d   1      32.967  20.488 -20.442  0.00  0.00     0.123 C 
ATOM     12  C   UNL d   1      33.209  20.626 -19.658  0.00  0.00     0.029 C 
ENDBRANCH  10  11
ENDBRANCH   6  10
BRANCH   7  13
ATOM     13  O   UNL d   1      33.241  22.322 -22.079  0.00  0.00    -0.301 OA
BRANCH  13  14
ATOM     14  C   UNL d   1      32.630  22.866 -22.005  0.00  0.00     0.123 C 
ATOM     15  C   UNL d   1      32.509  23.255 -21.286  0.00  0.00     0.029 C 
ENDBRANCH  13  14
ENDBRANCH   7  13
BRANCH   8  16
ATOM     16  O   UNL d   1      33.200  22.003 -23.698  0.00  0.00    -0.303 OA
BRANCH  16  17
ATOM     17  C   UNL d   1      32.655  22.141 -24.303  0.00  0.00     0.123 C 
ATOM     18  C   UNL d   1      32.906  22.126 -25.093  0.00  0.00     0.029 C 
ENDBRANCH  16  17
ENDBRANCH   8  16
ENDBRANCH   1   4
BRANCH   2  19
ATOM     19  C   UNL d   1      32.703  18.249 -24.147  0.00  0.00     0.085 A 
ATOM     20  C   UNL d   1      31.998  17.877 -23.918  0.00  0.00     0.022 A 
ATOM     21  C   UNL d   1      31.836  17.116 -24.183  0.00  0.00     0.037 A 
ATOM     22  C   UNL d   1      32.370  16.720 -24.673  0.00  0.00     0.003 A 
ATOM     23  C   UNL d   1      33.074  17.096 -24.900  0.00  0.00     0.002 A 
ATOM     24  C   UNL d   1      33.241  17.855 -24.639  0.00  0.00     0.019 A 
BRANCH  21  25
ATOM     25  C   UNL d   1      31.136  16.741 -23.958  0.00  0.00     0.162 A 
ATOM     26  N   UNL d   1      30.851  16.506 -23.221  0.00  0.00    -0.225 NA
ATOM     27  C   UNL d   1      30.112  16.155 -23.336  0.00  0.00     0.101 A 
ATOM     28  C   UNL d   1      29.570  15.820 -22.805  0.00  0.00     0.021 A 
ATOM     29  C   UNL d   1      29.949  16.178 -24.137  0.00  0.00     0.101 A 
ATOM     30  C   UNL d   1      28.867  15.509 -23.093  0.00  0.00     0.002 A 
ATOM     31  C   UNL d   1      28.702  15.532 -23.907  0.00  0.00     0.002 A 
ATOM     32  C   UNL d   1      29.237  15.863 -24.424  0.00  0.00     0.021 A 
ATOM     33  N   UNL d   1      30.579  16.538 -24.521  0.00  0.00    -0.225 NA
ENDBRANCH  21  25
ENDBRANCH   2  19
TORSDOF 9
ENDMDL
