MODEL 1
REMARK VINA RESULT:      37.0      0.000      0.000
REMARK  5 active torsions:
REMARK  status: ('A' for Active; 'I' for Inactive)
REMARK    1  A    between atoms: C_6  and  N_1 
REMARK    2  A    between atoms: C_13  and  C_6 
REMARK    3  A    between atoms: O_11  and  C_7 
REMARK    4  A    between atoms: O_19  and  C_8 
REMARK    5  A    between atoms: C_20  and  O_11 
ROOT
ATOM      1  C   UNL d   1      13.219  12.541  -3.981  0.00  0.00     0.122 A 
ATOM      2  C   UNL d   1      13.438  13.251  -3.626  0.00  0.00     0.117 A 
ATOM      3  C   UNL d   1      13.670  13.265  -2.834  0.00  0.00     0.028 A 
ATOM      4  C   UNL d   1      13.680  12.563  -2.406  0.00  0.00     0.020 A 
ATOM      5  C   UNL d   1      13.233  11.843  -3.542  0.00  0.00     0.027 A 
ATOM      6  C   UNL d   1      13.463  11.859  -2.758  0.00  0.00     0.004 A 
ENDROOT
BRANCH   4   7
ATOM      7  C   UNL d   1      13.912  12.581  -1.614  0.00  0.00     0.085 C 
BRANCH   7   8
ATOM      8  N   UNL d   1      14.667  12.847  -1.415  0.00  0.00    -0.251 N 
ATOM      9  C   UNL d   1      15.406  12.491  -1.574  0.00  0.00     0.378 A 
ATOM     10  O   UNL d   1      15.998  12.976  -1.258  0.00  0.00    -0.258 OA
ATOM     11  O   UNL d   1      15.517  11.781  -1.975  0.00  0.00    -0.237 OA
ATOM     12  C   UNL d   1      15.629  13.629  -0.905  0.00  0.00     0.121 A 
ATOM     13  C   UNL d   1      14.808  13.550  -1.002  0.00  0.00     0.092 A 
ATOM     14  C   UNL d   1      15.927  14.291  -0.506  0.00  0.00     0.026 A 
ATOM     15  C   UNL d   1      14.295  14.119  -0.706  0.00  0.00     0.020 A 
ATOM     16  C   UNL d   1      14.603  14.774  -0.311  0.00  0.00     0.002 A 
ATOM     17  C   UNL d   1      15.415  14.860  -0.211  0.00  0.00     0.002 A 
ATOM     18  C   UNL d   1      14.082  15.346  -0.015  0.00  0.00     0.000 C 
ENDBRANCH   7   8
ENDBRANCH   4   7
BRANCH   2  19
ATOM     19  O   UNL d   1      13.427  13.948  -4.053  0.00  0.00    -0.326 OA
ATOM     20  C   UNL d   1      13.018  14.601  -3.753  0.00  0.00     0.181 C 
ENDBRANCH   2  19
BRANCH   1  21
ATOM     21  O   UNL d   1      12.988  12.524  -4.770  0.00  0.00    -0.305 OA
BRANCH  21  22
ATOM     22  C   UNL d   1      13.416  12.082  -5.310  0.00  0.00     0.100 C 
ATOM     23  C   UNL d   1      13.102  11.918  -6.048  0.00  0.00     0.027 C 
ATOM     24  C   UNL d   1      14.166  11.801  -5.111  0.00  0.00     0.027 C 
ENDBRANCH  21  22
ENDBRANCH   1  21
TORSDOF 5
ENDMDL
