MODEL 1
REMARK VINA RESULT:      -0.3      0.000      0.000
REMARK  5 active torsions:
REMARK  status: ('A' for Active; 'I' for Inactive)
REMARK    1  A    between atoms: C_14  and  C_3 
REMARK    2  A    between atoms: C_8  and  C_4 
REMARK    3  A    between atoms: N_10  and  C_9 
REMARK    4  A    between atoms: O_21  and  C_14 
REMARK    5  A    between atoms: C_25  and  O_21 
ROOT
ATOM      1  C   UNL d   1      32.905  20.637 -22.634  0.00  0.00     0.059 A 
ATOM      2  C   UNL d   1      32.836  19.993 -22.123  0.00  0.00     0.085 A 
ATOM      3  C   UNL d   1      32.660  21.525 -21.547  0.00  0.00     0.083 A 
ATOM      4  C   UNL d   1      32.817  21.400 -22.342  0.00  0.00     0.034 A 
ATOM      5  N   UNL d   1      32.680  20.106 -21.328  0.00  0.00    -0.245 NA
ATOM      6  C   UNL d   1      33.062  20.350 -23.391  0.00  0.00     0.197 A 
ATOM      7  C   UNL d   1      32.591  20.878 -21.033  0.00  0.00     0.087 A 
ATOM      8  C   UNL d   1      32.951  19.303 -22.567  0.00  0.00     0.021 A 
ATOM      9  C   UNL d   1      33.090  19.522 -23.347  0.00  0.00     0.041 A 
ATOM     10  O   UNL d   1      33.171  20.805 -24.072  0.00  0.00    -0.286 OA
ATOM     11  C   UNL d   1      32.434  21.000 -20.234  0.00  0.00     0.021 C 
ATOM     12  C   UNL d   1      32.947  18.495 -22.360  0.00  0.00     0.002 A 
ATOM     13  C   UNL d   1      33.225  18.946 -23.928  0.00  0.00     0.003 A 
ATOM     14  C   UNL d   1      33.081  17.928 -22.936  0.00  0.00     0.000 A 
ATOM     15  C   UNL d   1      33.220  18.144 -23.715  0.00  0.00     0.000 A 
ENDROOT
BRANCH   4  16
ATOM     16  C   UNL d   1      32.886  22.044 -22.853  0.00  0.00     0.102 A 
ATOM     17  O   UNL d   1      32.615  22.080 -23.632  0.00  0.00    -0.286 OA
ATOM     18  C   UNL d   1      32.797  22.818 -23.936  0.00  0.00     0.227 A 
ATOM     19  C   UNL d   1      33.184  23.251 -23.350  0.00  0.00     0.051 A 
ATOM     20  C   UNL d   1      33.241  22.772 -22.675  0.00  0.00     0.029 A 
BRANCH  18  21
ATOM     21  N   UNL d   1      32.627  23.095 -24.699  0.00  0.00    -0.089 N 
ATOM     22  O   UNL d   1      33.121  23.639 -25.064  0.00  0.00    -0.530 OA
ATOM     23  O   UNL d   1      31.950  22.814 -25.092  0.00  0.00    -0.530 OA
ENDBRANCH  18  21
ENDBRANCH   4  16
BRANCH   3  24
ATOM     24  C   UNL d   1      32.571  22.290 -21.252  0.00  0.00     0.302 C 
ATOM     25  O   UNL d   1      33.217  22.803 -21.246  0.00  0.00    -0.259 OA
BRANCH  24  26
ATOM     26  O   UNL d   1      31.841  22.542 -20.967  0.00  0.00    -0.271 OA
BRANCH  26  27
ATOM     27  C   UNL d   1      31.790  23.242 -20.534  0.00  0.00     0.126 C 
ATOM     28  C   UNL d   1      31.052  23.544 -20.331  0.00  0.00     0.029 C 
ENDBRANCH  26  27
ENDBRANCH  24  26
ENDBRANCH   3  24
TORSDOF 5
ENDMDL
MODEL 2
REMARK VINA RESULT:       0.7      1.648      3.749
REMARK  5 active torsions:
REMARK  status: ('A' for Active; 'I' for Inactive)
REMARK    1  A    between atoms: C_14  and  C_3 
REMARK    2  A    between atoms: C_8  and  C_4 
REMARK    3  A    between atoms: N_10  and  C_9 
REMARK    4  A    between atoms: O_21  and  C_14 
REMARK    5  A    between atoms: C_25  and  O_21 
ROOT
ATOM      1  C   UNL d   1      32.973  22.243 -20.161  0.00  0.00     0.059 A 
ATOM      2  C   UNL d   1      33.108  21.668 -19.586  0.00  0.00     0.085 A 
ATOM      3  C   UNL d   1      33.016  21.240 -21.173  0.00  0.00     0.083 A 
ATOM      4  C   UNL d   1      32.927  22.026 -20.952  0.00  0.00     0.034 A 
ATOM      5  N   UNL d   1      33.197  20.882 -19.794  0.00  0.00    -0.245 NA
ATOM      6  C   UNL d   1      32.907  22.974 -19.786  0.00  0.00     0.197 A 
ATOM      7  C   UNL d   1      33.151  20.663 -20.594  0.00  0.00     0.087 A 
ATOM      8  C   UNL d   1      33.125  22.046 -18.849  0.00  0.00     0.021 A 
ATOM      9  C   UNL d   1      33.002  22.850 -18.971  0.00  0.00     0.041 A 
ATOM     10  O   UNL d   1      32.770  23.702 -20.154  0.00  0.00    -0.286 OA
ATOM     11  C   UNL d   1      33.240  19.873 -20.812  0.00  0.00     0.021 C 
ATOM     12  C   UNL d   1      33.239  21.760 -18.074  0.00  0.00     0.002 A 
ATOM     13  C   UNL d   1      32.990  23.376 -18.330  0.00  0.00     0.003 A 
ATOM     14  C   UNL d   1      33.227  22.282 -17.442  0.00  0.00     0.000 A 
ATOM     15  C   UNL d   1      33.104  23.084 -17.562  0.00  0.00     0.000 A 
ENDROOT
BRANCH   4  16
ATOM     16  C   UNL d   1      32.793  22.601 -21.528  0.00  0.00     0.102 A 
ATOM     17  O   UNL d   1      32.190  22.594 -22.093  0.00  0.00    -0.286 OA
ATOM     18  C   UNL d   1      32.259  23.268 -22.553  0.00  0.00     0.227 A 
ATOM     19  C   UNL d   1      32.905  23.702 -22.281  0.00  0.00     0.051 A 
ATOM     20  C   UNL d   1      33.240  23.290 -21.644  0.00  0.00     0.029 A 
BRANCH  18  21
ATOM     21  N   UNL d   1      31.769  23.487 -23.186  0.00  0.00    -0.089 N 
ATOM     22  O   UNL d   1      32.086  23.615 -23.932  0.00  0.00    -0.530 OA
ATOM     23  O   UNL d   1      30.953  23.575 -23.056  0.00  0.00    -0.530 OA
ENDBRANCH  18  21
ENDBRANCH   4  16
BRANCH   3  24
ATOM     24  C   UNL d   1      32.970  21.020 -21.967  0.00  0.00     0.302 C 
ATOM     25  O   UNL d   1      33.240  21.538 -22.550  0.00  0.00    -0.259 OA
BRANCH  24  26
ATOM     26  O   UNL d   1      32.658  20.288 -22.177  0.00  0.00    -0.271 OA
BRANCH  26  27
ATOM     27  C   UNL d   1      32.833  19.964 -22.914  0.00  0.00     0.126 C 
ATOM     28  C   UNL d   1      32.472  19.263 -23.149  0.00  0.00     0.029 C 
ENDBRANCH  26  27
ENDBRANCH  24  26
ENDBRANCH   3  24
TORSDOF 5
ENDMDL
MODEL 3
REMARK VINA RESULT:       1.7      3.299      5.251
REMARK  5 active torsions:
REMARK  status: ('A' for Active; 'I' for Inactive)
REMARK    1  A    between atoms: C_14  and  C_3 
REMARK    2  A    between atoms: C_8  and  C_4 
REMARK    3  A    between atoms: N_10  and  C_9 
REMARK    4  A    between atoms: O_21  and  C_14 
REMARK    5  A    between atoms: C_25  and  O_21 
ROOT
ATOM      1  C   UNL d   1      31.708  18.580 -24.293  0.00  0.00     0.059 A 
ATOM      2  C   UNL d   1      32.458  18.800 -24.029  0.00  0.00     0.085 A 
ATOM      3  C   UNL d   1      31.881  17.291 -23.711  0.00  0.00     0.083 A 
ATOM      4  C   UNL d   1      31.424  17.826 -24.133  0.00  0.00     0.034 A 
ATOM      5  N   UNL d   1      32.923  18.274 -23.608  0.00  0.00    -0.245 NA
ATOM      6  C   UNL d   1      31.378  19.220 -24.695  0.00  0.00     0.197 A 
ATOM      7  C   UNL d   1      32.635  17.512 -23.446  0.00  0.00     0.087 A 
ATOM      8  C   UNL d   1      32.593  19.581 -24.269  0.00  0.00     0.021 A 
ATOM      9  C   UNL d   1      31.929  19.840 -24.679  0.00  0.00     0.041 A 
ATOM     10  O   UNL d   1      30.632  19.241 -25.051  0.00  0.00    -0.286 OA
ATOM     11  C   UNL d   1      33.097  16.977 -23.023  0.00  0.00     0.021 C 
ATOM     12  C   UNL d   1      33.241  20.095 -24.167  0.00  0.00     0.002 A 
ATOM     13  C   UNL d   1      31.900  20.608 -24.991  0.00  0.00     0.003 A 
ATOM     14  C   UNL d   1      33.210  20.855 -24.476  0.00  0.00     0.000 A 
ATOM     15  C   UNL d   1      32.548  21.115 -24.886  0.00  0.00     0.000 A 
ENDROOT
BRANCH   4  16
ATOM     16  C   UNL d   1      30.674  17.606 -24.397  0.00  0.00     0.102 A 
ATOM     17  O   UNL d   1      29.953  17.855 -24.081  0.00  0.00    -0.286 OA
ATOM     18  C   UNL d   1      29.349  17.505 -24.508  0.00  0.00     0.227 A 
ATOM     19  C   UNL d   1      29.685  17.034 -25.095  0.00  0.00     0.051 A 
ATOM     20  C   UNL d   1      30.510  17.095 -25.029  0.00  0.00     0.029 A 
BRANCH  18  21
ATOM     21  N   UNL d   1      28.534  17.600 -24.381  0.00  0.00    -0.089 N 
ATOM     22  O   UNL d   1      28.253  17.869 -23.658  0.00  0.00    -0.530 OA
ATOM     23  O   UNL d   1      28.004  17.418 -24.995  0.00  0.00    -0.530 OA
ENDBRANCH  18  21
ENDBRANCH   4  16
BRANCH   3  24
ATOM     24  C   UNL d   1      31.597  16.533 -23.550  0.00  0.00     0.302 C 
ATOM     25  O   UNL d   1      31.931  15.883 -23.932  0.00  0.00    -0.259 OA
BRANCH  24  26
ATOM     26  O   UNL d   1      30.985  16.427 -23.010  0.00  0.00    -0.271 OA
BRANCH  26  27
ATOM     27  C   UNL d   1      30.948  15.734 -22.564  0.00  0.00     0.126 C 
ATOM     28  C   UNL d   1      30.219  15.454 -22.305  0.00  0.00     0.029 C 
ENDBRANCH  26  27
ENDBRANCH  24  26
ENDBRANCH   3  24
TORSDOF 5
ENDMDL
MODEL 4
REMARK VINA RESULT:       2.3      1.373      3.034
REMARK  5 active torsions:
REMARK  status: ('A' for Active; 'I' for Inactive)
REMARK    1  A    between atoms: C_14  and  C_3 
REMARK    2  A    between atoms: C_8  and  C_4 
REMARK    3  A    between atoms: N_10  and  C_9 
REMARK    4  A    between atoms: O_21  and  C_14 
REMARK    5  A    between atoms: C_25  and  O_21 
ROOT
ATOM      1  C   UNL d   1      32.813  19.267 -22.697  0.00  0.00     0.059 A 
ATOM      2  C   UNL d   1      32.932  18.935 -23.442  0.00  0.00     0.085 A 
ATOM      3  C   UNL d   1      32.960  20.570 -23.255  0.00  0.00     0.083 A 
ATOM      4  C   UNL d   1      32.827  20.084 -22.607  0.00  0.00     0.034 A 
ATOM      5  N   UNL d   1      33.065  19.410 -24.095  0.00  0.00    -0.245 NA
ATOM      6  C   UNL d   1      32.694  18.655 -22.157  0.00  0.00     0.197 A 
ATOM      7  C   UNL d   1      33.079  20.236 -24.004  0.00  0.00     0.087 A 
ATOM      8  C   UNL d   1      32.887  18.112 -23.363  0.00  0.00     0.021 A 
ATOM      9  C   UNL d   1      32.741  17.939 -22.572  0.00  0.00     0.041 A 
ATOM     10  O   UNL d   1      32.555  18.740 -21.346  0.00  0.00    -0.286 OA
ATOM     11  C   UNL d   1      33.213  20.721 -24.656  0.00  0.00     0.021 C 
ATOM     12  C   UNL d   1      32.961  17.490 -23.914  0.00  0.00     0.002 A 
ATOM     13  C   UNL d   1      32.667  17.152 -22.321  0.00  0.00     0.003 A 
ATOM     14  C   UNL d   1      32.887  16.713 -23.662  0.00  0.00     0.000 A 
ATOM     15  C   UNL d   1      32.741  16.539 -22.874  0.00  0.00     0.000 A 
ENDROOT
BRANCH   4  16
ATOM     16  C   UNL d   1      32.708  20.416 -21.862  0.00  0.00     0.102 A 
ATOM     17  O   UNL d   1      32.057  20.866 -21.626  0.00  0.00    -0.286 OA
ATOM     18  C   UNL d   1      32.163  21.085 -20.845  0.00  0.00     0.227 A 
ATOM     19  C   UNL d   1      32.881  20.776 -20.583  0.00  0.00     0.051 A 
ATOM     20  C   UNL d   1      33.224  20.359 -21.214  0.00  0.00     0.029 A 
BRANCH  18  21
ATOM     21  N   UNL d   1      31.644  21.540 -20.384  0.00  0.00    -0.089 N 
ATOM     22  O   UNL d   1      30.833  21.431 -20.440  0.00  0.00    -0.530 OA
ATOM     23  O   UNL d   1      31.956  22.109 -19.864  0.00  0.00    -0.530 OA
ENDBRANCH  18  21
ENDBRANCH   4  16
BRANCH   3  24
ATOM     24  C   UNL d   1      32.975  21.390 -23.167  0.00  0.00     0.302 C 
ATOM     25  O   UNL d   1      33.219  21.719 -22.450  0.00  0.00    -0.259 OA
BRANCH  24  26
ATOM     26  O   UNL d   1      32.748  21.878 -23.789  0.00  0.00    -0.271 OA
BRANCH  26  27
ATOM     27  C   UNL d   1      32.973  22.671 -23.791  0.00  0.00     0.126 C 
ATOM     28  C   UNL d   1      32.569  23.210 -24.265  0.00  0.00     0.029 C 
ENDBRANCH  26  27
ENDBRANCH  24  26
ENDBRANCH   3  24
TORSDOF 5
ENDMDL
MODEL 5
REMARK VINA RESULT:       2.6      1.424      3.400
REMARK  5 active torsions:
REMARK  status: ('A' for Active; 'I' for Inactive)
REMARK    1  A    between atoms: C_14  and  C_3 
REMARK    2  A    between atoms: C_8  and  C_4 
REMARK    3  A    between atoms: N_10  and  C_9 
REMARK    4  A    between atoms: O_21  and  C_14 
REMARK    5  A    between atoms: C_25  and  O_21 
ROOT
ATOM      1  C   UNL d   1      32.769  21.775 -22.618  0.00  0.00     0.059 A 
ATOM      2  C   UNL d   1      32.653  22.592 -22.631  0.00  0.00     0.085 A 
ATOM      3  C   UNL d   1      32.480  21.757 -21.222  0.00  0.00     0.083 A 
ATOM      4  C   UNL d   1      32.681  21.362 -21.913  0.00  0.00     0.034 A 
ATOM      5  N   UNL d   1      32.452  22.996 -21.948  0.00  0.00    -0.245 NA
ATOM      6  C   UNL d   1      32.963  21.530 -23.380  0.00  0.00     0.197 A 
ATOM      7  C   UNL d   1      32.364  22.577 -21.236  0.00  0.00     0.087 A 
ATOM      8  C   UNL d   1      32.777  22.854 -23.406  0.00  0.00     0.021 A 
ATOM      9  C   UNL d   1      32.968  22.201 -23.869  0.00  0.00     0.041 A 
ATOM     10  O   UNL d   1      33.125  20.754 -23.618  0.00  0.00    -0.286 OA
ATOM     11  C   UNL d   1      32.162  22.977 -20.544  0.00  0.00     0.021 C 
ATOM     12  C   UNL d   1      32.741  23.610 -23.756  0.00  0.00     0.002 A 
ATOM     13  C   UNL d   1      33.124  22.289 -24.678  0.00  0.00     0.003 A 
ATOM     14  C   UNL d   1      32.896  23.694 -24.557  0.00  0.00     0.000 A 
ATOM     15  C   UNL d   1      33.087  23.044 -25.020  0.00  0.00     0.000 A 
ENDROOT
BRANCH   4  16
ATOM     16  C   UNL d   1      32.797  20.545 -21.900  0.00  0.00     0.102 A 
ATOM     17  O   UNL d   1      32.522  20.005 -22.460  0.00  0.00    -0.286 OA
ATOM     18  C   UNL d   1      32.760  19.255 -22.235  0.00  0.00     0.227 A 
ATOM     19  C   UNL d   1      33.186  19.318 -21.531  0.00  0.00     0.051 A 
ATOM     20  C   UNL d   1      33.211  20.120 -21.320  0.00  0.00     0.029 A 
BRANCH  18  21
ATOM     21  N   UNL d   1      32.605  18.545 -22.636  0.00  0.00    -0.089 N 
ATOM     22  O   UNL d   1      31.834  18.281 -22.732  0.00  0.00    -0.530 OA
ATOM     23  O   UNL d   1      33.241  18.104 -22.939  0.00  0.00    -0.530 OA
ENDBRANCH  18  21
ENDBRANCH   4  16
BRANCH   3  24
ATOM     24  C   UNL d   1      32.392  21.344 -20.514  0.00  0.00     0.302 C 
ATOM     25  O   UNL d   1      31.641  21.101 -20.274  0.00  0.00    -0.259 OA
BRANCH  24  26
ATOM     26  O   UNL d   1      33.049  21.174 -20.048  0.00  0.00    -0.271 OA
BRANCH  26  27
ATOM     27  C   UNL d   1      33.022  21.310 -19.236  0.00  0.00     0.126 C 
ATOM     28  C   UNL d   1      33.068  20.675 -18.713  0.00  0.00     0.029 C 
ENDBRANCH  26  27
ENDBRANCH  24  26
ENDBRANCH   3  24
TORSDOF 5
ENDMDL
