MODEL 1
REMARK VINA RESULT:      -5.9      0.000      0.000
REMARK  4 active torsions:
REMARK  status: ('A' for Active; 'I' for Inactive)
REMARK    1  A    between atoms: C_7  and  C_1 
REMARK    2  A    between atoms: N_5  and  C_3 
REMARK       I    between atoms: C_8  and  N_5 
REMARK    3  A    between atoms: C_9  and  C_8 
REMARK    4  A    between atoms: O_21  and  C_15 
ROOT
ATOM      1  C   UNL d   1     -41.468-122.518 -52.770  0.00  0.00     0.137 A 
ATOM      2  S   UNL d   1     -41.506-122.975 -52.086  0.00  0.00    -0.026 SA
ATOM      3  C   UNL d   1     -41.491-122.475 -51.435  0.00  0.00     0.219 A 
ATOM      4  N   UNL d   1     -41.429-121.717 -52.537  0.00  0.00    -0.139 NA
ATOM      5  N   UNL d   1     -41.443-121.690 -51.714  0.00  0.00    -0.121 NA
ENDROOT
BRANCH   3   6
ATOM      6  N   UNL d   1     -41.519-122.703 -50.645  0.00  0.00    -0.181 NA
ATOM      7  C   UNL d   1     -42.157-122.791 -50.123  0.00  0.00     0.281 C 
ATOM      8  O   UNL d   1     -42.916-122.638 -50.380  0.00  0.00    -0.265 OA
BRANCH   7   9
ATOM      9  C   UNL d   1     -42.014-123.032 -49.346  0.00  0.00     0.060 A 
ATOM     10  C   UNL d   1     -42.642-123.058 -48.812  0.00  0.00     0.031 A 
ATOM     11  C   UNL d   1     -42.509-123.296 -48.042  0.00  0.00     0.119 A 
ATOM     12  O   UNL d   1     -43.011-123.377 -47.396  0.00  0.00    -0.300 OA
ATOM     13  C   UNL d   1     -41.751-123.509 -47.799  0.00  0.00     0.119 A 
ATOM     14  C   UNL d   1     -42.565-123.642 -46.748  0.00  0.00     0.304 A 
ATOM     15  O   UNL d   1     -41.782-123.723 -47.002  0.00  0.00    -0.300 OA
ATOM     16  C   UNL d   1     -41.123-123.483 -48.333  0.00  0.00     0.026 A 
ATOM     17  C   UNL d   1     -41.254-123.245 -49.107  0.00  0.00     0.007 A 
ENDBRANCH   7   9
ENDBRANCH   3   6
BRANCH   1  18
ATOM     18  C   UNL d   1     -41.468-122.797 -53.549  0.00  0.00     0.048 A 
ATOM     19  C   UNL d   1     -41.814-122.352 -54.161  0.00  0.00     0.096 A 
ATOM     20  C   UNL d   1     -41.814-122.627 -54.927  0.00  0.00     0.024 A 
ATOM     21  C   UNL d   1     -41.465-123.359 -55.098  0.00  0.00     0.002 A 
ATOM     22  C   UNL d   1     -41.123-123.805 -54.507  0.00  0.00     0.000 A 
ATOM     23  C   UNL d   1     -41.126-123.519 -53.728  0.00  0.00     0.004 A 
BRANCH  19  24
ATOM     24  O   UNL d   1     -42.155-121.630 -53.982  0.00  0.00    -0.328 OA
ATOM     25  C   UNL d   1     -42.683-121.283 -54.513  0.00  0.00     0.181 C 
ENDBRANCH  19  24
ENDBRANCH   1  18
TORSDOF 4
ENDMDL
MODEL 2
REMARK VINA RESULT:      -5.6      1.031      5.490
REMARK  4 active torsions:
REMARK  status: ('A' for Active; 'I' for Inactive)
REMARK    1  A    between atoms: C_7  and  C_1 
REMARK    2  A    between atoms: N_5  and  C_3 
REMARK       I    between atoms: C_8  and  N_5 
REMARK    3  A    between atoms: C_9  and  C_8 
REMARK    4  A    between atoms: O_21  and  C_15 
ROOT
ATOM      1  C   UNL d   1     -41.782-122.594 -49.862  0.00  0.00     0.137 A 
ATOM      2  S   UNL d   1     -41.788-122.939 -50.610  0.00  0.00    -0.026 SA
ATOM      3  C   UNL d   1     -41.783-122.344 -51.174  0.00  0.00     0.219 A 
ATOM      4  N   UNL d   1     -41.772-121.765 -49.966  0.00  0.00    -0.139 NA
ATOM      5  N   UNL d   1     -41.773-121.610 -50.775  0.00  0.00    -0.121 NA
ENDROOT
BRANCH   3   6
ATOM      6  N   UNL d   1     -41.787-122.446 -51.991  0.00  0.00    -0.181 NA
ATOM      7  C   UNL d   1     -41.505-121.965 -52.603  0.00  0.00     0.281 C 
ATOM      8  O   UNL d   1     -41.150-121.250 -52.429  0.00  0.00    -0.265 OA
BRANCH   7   9
ATOM      9  C   UNL d   1     -41.586-122.216 -53.386  0.00  0.00     0.060 A 
ATOM     10  C   UNL d   1     -41.990-121.736 -53.922  0.00  0.00     0.031 A 
ATOM     11  C   UNL d   1     -42.075-121.977 -54.698  0.00  0.00     0.119 A 
ATOM     12  O   UNL d   1     -42.440-121.628 -55.346  0.00  0.00    -0.300 OA
ATOM     13  C   UNL d   1     -41.760-122.697 -54.945  0.00  0.00     0.119 A 
ATOM     14  C   UNL d   1     -42.352-122.132 -56.000  0.00  0.00     0.304 A 
ATOM     15  O   UNL d   1     -41.929-122.796 -55.747  0.00  0.00    -0.300 OA
ATOM     16  C   UNL d   1     -41.356-123.178 -54.408  0.00  0.00     0.026 A 
ATOM     17  C   UNL d   1     -41.270-122.937 -53.629  0.00  0.00     0.007 A 
ENDBRANCH   7   9
ENDBRANCH   3   6
BRANCH   1  18
ATOM     18  C   UNL d   1     -41.784-122.991 -49.136  0.00  0.00     0.048 A 
ATOM     19  C   UNL d   1     -42.449-123.427 -48.891  0.00  0.00     0.096 A 
ATOM     20  C   UNL d   1     -42.451-123.817 -48.178  0.00  0.00     0.024 A 
ATOM     21  C   UNL d   1     -41.782-123.780 -47.690  0.00  0.00     0.002 A 
ATOM     22  C   UNL d   1     -41.123-123.356 -47.918  0.00  0.00     0.000 A 
ATOM     23  C   UNL d   1     -41.128-122.960 -48.647  0.00  0.00     0.004 A 
BRANCH  19  24
ATOM     24  O   UNL d   1     -43.105-123.458 -49.380  0.00  0.00    -0.328 OA
ATOM     25  C   UNL d   1     -43.839-123.673 -49.070  0.00  0.00     0.181 C 
ENDBRANCH  19  24
ENDBRANCH   1  18
TORSDOF 4
ENDMDL
