MODEL 1
REMARK VINA RESULT:      37.4      0.000      0.000
REMARK  4 active torsions:
REMARK  status: ('A' for Active; 'I' for Inactive)
REMARK    1  A    between atoms: N_3  and  C_1 
REMARK    2  A    between atoms: C_2  and  S_10 
REMARK    3  A    between atoms: N_5  and  C_9 
REMARK    4  A    between atoms: S_10  and  C_8 
ROOT
ATOM      1  C   UNL d   1      60.846  49.387  50.861  0.00  0.00     0.134 A 
ATOM      2  C   UNL d   1      61.241  49.304  51.586  0.00  0.00     0.048 A 
ATOM      3  C   UNL d   1      60.037  49.591  50.838  0.00  0.00     0.055 A 
ATOM      4  C   UNL d   1      60.839  49.422  52.308  0.00  0.00     0.128 A 
ATOM      5  C   UNL d   1      59.639  49.707  51.539  0.00  0.00     0.010 A 
ATOM      6  C   UNL d   1      60.025  49.626  52.264  0.00  0.00     0.024 A 
ENDROOT
BRANCH   3   7
ATOM      7  S   UNL d   1      59.640  49.675  50.141  0.00  0.00    -0.041 SA
BRANCH   7   8
ATOM      8  C   UNL d   1      58.706  49.581  50.150  0.00  0.00     0.215 A 
ATOM      9  N   UNL d   1      58.248  49.657  50.798  0.00  0.00    -0.214 NA
ATOM     10  C   UNL d   1      57.460  49.530  50.557  0.00  0.00     0.107 A 
ATOM     11  C   UNL d   1      56.731  49.533  50.966  0.00  0.00     0.021 A 
ATOM     12  C   UNL d   1      57.458  49.377  49.752  0.00  0.00     0.120 A 
ATOM     13  C   UNL d   1      56.039  49.383  50.555  0.00  0.00     0.002 A 
ATOM     14  C   UNL d   1      56.042  49.232  49.759  0.00  0.00     0.002 A 
ATOM     15  C   UNL d   1      56.758  49.227  49.346  0.00  0.00     0.026 A 
ATOM     16  O   UNL d   1      58.267  49.410  49.492  0.00  0.00    -0.283 OA
ENDBRANCH   7   8
ENDBRANCH   3   7
BRANCH   1  17
ATOM     17  N   UNL d   1      61.272  49.263  50.168  0.00  0.00    -0.113 N 
ATOM     18  O   UNL d   1      61.936  48.817  50.124  0.00  0.00    -0.532 OA
ATOM     19  O   UNL d   1      61.051  49.594  49.440  0.00  0.00    -0.532 OA
ENDBRANCH   1  17
BRANCH   4  20
ATOM     20  N   UNL d   1      61.207  49.345  53.037  0.00  0.00    -0.114 N 
ATOM     21  O   UNL d   1      60.817  49.453  53.783  0.00  0.00    -0.532 OA
ATOM     22  O   UNL d   1      61.982  49.159  53.155  0.00  0.00    -0.532 OA
ENDBRANCH   4  20
TORSDOF 4
ENDMDL
