MODEL 1
REMARK VINA RESULT:      -0.8      0.000      0.000
REMARK  7 active torsions:
REMARK  status: ('A' for Active; 'I' for Inactive)
REMARK    1  A    between atoms: C_11  and  C_3 
REMARK    2  A    between atoms: C_10  and  C_4 
REMARK    3  A    between atoms: O_15  and  C_10 
REMARK    4  A    between atoms: N_14  and  C_11 
REMARK    5  A    between atoms: C_20  and  N_14 
REMARK    6  A    between atoms: C_22  and  O_15 
REMARK    7  A    between atoms: C_21  and  C_20 
ROOT
ATOM      1  C   UNL d   1      32.844  20.754 -22.159  0.00  0.00     0.035 A 
ATOM      2  C   UNL d   1      32.900  19.933 -22.101  0.00  0.00     0.100 A 
ATOM      3  C   UNL d   1      32.895  21.117 -22.898  0.00  0.00     0.060 A 
ATOM      4  C   UNL d   1      32.739  21.081 -21.403  0.00  0.00     0.088 A 
ATOM      5  O   UNL d   1      32.827  19.751 -21.281  0.00  0.00    -0.307 OA
ATOM      6  C   UNL d   1      32.729  20.458 -20.865  0.00  0.00     0.105 A 
ATOM      7  C   UNL d   1      33.001  20.658 -23.578  0.00  0.00     0.197 A 
ATOM      8  C   UNL d   1      33.006  19.481 -22.773  0.00  0.00     0.026 A 
ATOM      9  C   UNL d   1      33.056  19.843 -23.511  0.00  0.00     0.041 A 
ATOM     10  O   UNL d   1      33.053  21.026 -24.329  0.00  0.00    -0.286 OA
ATOM     11  C   UNL d   1      32.633  20.539 -20.013  0.00  0.00     0.027 C 
ATOM     12  C   UNL d   1      33.063  18.652 -22.718  0.00  0.00     0.002 A 
ATOM     13  C   UNL d   1      33.164  19.376 -24.195  0.00  0.00     0.003 A 
ATOM     14  C   UNL d   1      33.219  18.566 -24.127  0.00  0.00     0.000 A 
ATOM     15  C   UNL d   1      33.168  18.203 -23.388  0.00  0.00     0.000 A 
ENDROOT
BRANCH   3  16
ATOM     16  C   UNL d   1      32.834  21.948 -22.926  0.00  0.00     0.102 C 
BRANCH  16  17
ATOM     17  N   UNL d   1      32.942  22.339 -23.664  0.00  0.00    -0.239 NA
BRANCH  17  18
ATOM     18  C   UNL d   1      33.114  23.156 -23.672  0.00  0.00     0.144 C 
BRANCH  18  19
ATOM     19  C   UNL d   1      32.769  23.633 -24.242  0.00  0.00     0.255 C 
ATOM     20  O   UNL d   1      32.928  23.522 -25.044  0.00  0.00    -0.281 OA
ENDBRANCH  18  19
ENDBRANCH  17  18
ENDBRANCH  16  17
ENDBRANCH   3  16
BRANCH   4  21
ATOM     21  C   UNL d   1      32.653  21.904 -21.181  0.00  0.00     0.302 C 
ATOM     22  O   UNL d   1      32.145  22.399 -21.601  0.00  0.00    -0.259 OA
BRANCH  21  23
ATOM     23  O   UNL d   1      33.082  22.183 -20.550  0.00  0.00    -0.271 OA
BRANCH  23  24
ATOM     24  C   UNL d   1      33.014  22.962 -20.297  0.00  0.00     0.126 C 
ATOM     25  C   UNL d   1      33.232  23.167 -19.523  0.00  0.00     0.029 C 
ENDBRANCH  23  24
ENDBRANCH  21  23
ENDBRANCH   4  21
TORSDOF 7
ENDMDL
MODEL 2
REMARK VINA RESULT:      -0.0      3.591      5.544
REMARK  7 active torsions:
REMARK  status: ('A' for Active; 'I' for Inactive)
REMARK    1  A    between atoms: C_11  and  C_3 
REMARK    2  A    between atoms: C_10  and  C_4 
REMARK    3  A    between atoms: O_15  and  C_10 
REMARK    4  A    between atoms: N_14  and  C_11 
REMARK    5  A    between atoms: C_20  and  N_14 
REMARK    6  A    between atoms: C_22  and  O_15 
REMARK    7  A    between atoms: C_21  and  C_20 
ROOT
ATOM      1  C   UNL d   1      30.832  17.475 -24.257  0.00  0.00     0.035 A 
ATOM      2  C   UNL d   1      30.030  17.603 -24.405  0.00  0.00     0.100 A 
ATOM      3  C   UNL d   1      31.078  16.763 -23.925  0.00  0.00     0.060 A 
ATOM      4  C   UNL d   1      31.268  18.143 -24.490  0.00  0.00     0.088 A 
ATOM      5  O   UNL d   1      29.972  18.374 -24.740  0.00  0.00    -0.307 OA
ATOM      6  C   UNL d   1      30.733  18.694 -24.787  0.00  0.00     0.105 A 
ATOM      7  C   UNL d   1      30.524  16.177 -23.741  0.00  0.00     0.197 A 
ATOM      8  C   UNL d   1      29.483  17.024 -24.223  0.00  0.00     0.026 A 
ATOM      9  C   UNL d   1      29.729  16.311 -23.891  0.00  0.00     0.041 A 
ATOM     10  O   UNL d   1      30.775  15.453 -23.403  0.00  0.00    -0.286 OA
ATOM     11  C   UNL d   1      30.941  19.472 -25.094  0.00  0.00     0.027 C 
ATOM     12  C   UNL d   1      28.672  17.148 -24.371  0.00  0.00     0.002 A 
ATOM     13  C   UNL d   1      29.166  15.723 -23.707  0.00  0.00     0.003 A 
ATOM     14  C   UNL d   1      28.377  15.858 -23.857  0.00  0.00     0.000 A 
ATOM     15  C   UNL d   1      28.130  16.571 -24.189  0.00  0.00     0.000 A 
ENDROOT
BRANCH   3  16
ATOM     16  C   UNL d   1      31.895  16.663 -23.786  0.00  0.00     0.102 C 
BRANCH  16  17
ATOM     17  N   UNL d   1      32.182  15.898 -23.582  0.00  0.00    -0.239 NA
BRANCH  17  18
ATOM     18  C   UNL d   1      32.998  15.795 -23.432  0.00  0.00     0.144 C 
BRANCH  18  19
ATOM     19  C   UNL d   1      33.238  15.508 -22.702  0.00  0.00     0.255 C 
ATOM     20  O   UNL d   1      33.116  15.944 -22.013  0.00  0.00    -0.281 OA
ENDBRANCH  18  19
ENDBRANCH  17  18
ENDBRANCH  16  17
ENDBRANCH   3  16
BRANCH   4  21
ATOM     21  C   UNL d   1      32.113  18.274 -24.446  0.00  0.00     0.302 C 
ATOM     22  O   UNL d   1      32.594  18.117 -25.097  0.00  0.00    -0.259 OA
BRANCH  21  23
ATOM     23  O   UNL d   1      32.427  18.554 -23.751  0.00  0.00    -0.271 OA
BRANCH  23  24
ATOM     24  C   UNL d   1      32.986  19.157 -23.747  0.00  0.00     0.126 C 
ATOM     25  C   UNL d   1      32.942  19.758 -23.177  0.00  0.00     0.029 C 
ENDBRANCH  23  24
ENDBRANCH  21  23
ENDBRANCH   4  21
TORSDOF 7
ENDMDL
MODEL 3
REMARK VINA RESULT:       0.8      3.978      5.753
REMARK  7 active torsions:
REMARK  status: ('A' for Active; 'I' for Inactive)
REMARK    1  A    between atoms: C_11  and  C_3 
REMARK    2  A    between atoms: C_10  and  C_4 
REMARK    3  A    between atoms: O_15  and  C_10 
REMARK    4  A    between atoms: N_14  and  C_11 
REMARK    5  A    between atoms: C_20  and  N_14 
REMARK    6  A    between atoms: C_22  and  O_15 
REMARK    7  A    between atoms: C_21  and  C_20 
ROOT
ATOM      1  C   UNL d   1      31.072  17.487 -24.477  0.00  0.00     0.035 A 
ATOM      2  C   UNL d   1      31.073  18.268 -24.743  0.00  0.00     0.100 A 
ATOM      3  C   UNL d   1      31.781  17.130 -24.254  0.00  0.00     0.060 A 
ATOM      4  C   UNL d   1      30.296  17.190 -24.486  0.00  0.00     0.088 A 
ATOM      5  O   UNL d   1      30.271  18.456 -24.922  0.00  0.00    -0.307 OA
ATOM      6  C   UNL d   1      29.807  17.791 -24.761  0.00  0.00     0.105 A 
ATOM      7  C   UNL d   1      32.490  17.553 -24.298  0.00  0.00     0.197 A 
ATOM      8  C   UNL d   1      31.774  18.686 -24.786  0.00  0.00     0.026 A 
ATOM      9  C   UNL d   1      32.483  18.328 -24.564  0.00  0.00     0.041 A 
ATOM     10  O   UNL d   1      33.210  17.190 -24.071  0.00  0.00    -0.286 OA
ATOM     11  C   UNL d   1      28.953  17.730 -24.861  0.00  0.00     0.027 C 
ATOM     12  C   UNL d   1      31.779  19.474 -25.055  0.00  0.00     0.002 A 
ATOM     13  C   UNL d   1      33.196  18.760 -24.609  0.00  0.00     0.003 A 
ATOM     14  C   UNL d   1      33.186  19.530 -24.874  0.00  0.00     0.000 A 
ATOM     15  C   UNL d   1      32.478  19.888 -25.097  0.00  0.00     0.000 A 
ENDROOT
BRANCH   3  16
ATOM     16  C   UNL d   1      31.749  16.339 -23.989  0.00  0.00     0.102 C 
BRANCH  16  17
ATOM     17  N   UNL d   1      32.446  15.989 -23.672  0.00  0.00    -0.239 NA
BRANCH  17  18
ATOM     18  C   UNL d   1      32.629  16.103 -22.864  0.00  0.00     0.144 C 
BRANCH  18  19
ATOM     19  C   UNL d   1      32.814  15.453 -22.400  0.00  0.00     0.255 C 
ATOM     20  O   UNL d   1      33.160  15.546 -21.656  0.00  0.00    -0.281 OA
ENDBRANCH  18  19
ENDBRANCH  17  18
ENDBRANCH  16  17
ENDBRANCH   3  16
BRANCH   4  21
ATOM     21  C   UNL d   1      30.017  16.412 -24.260  0.00  0.00     0.302 C 
ATOM     22  O   UNL d   1      30.161  15.761 -24.743  0.00  0.00    -0.259 OA
BRANCH  21  23
ATOM     23  O   UNL d   1      29.608  16.334 -23.562  0.00  0.00    -0.271 OA
BRANCH  23  24
ATOM     24  C   UNL d   1      28.994  15.793 -23.484  0.00  0.00     0.126 C 
ATOM     25  C   UNL d   1      28.821  15.468 -22.740  0.00  0.00     0.029 C 
ENDBRANCH  23  24
ENDBRANCH  21  23
ENDBRANCH   4  21
TORSDOF 7
ENDMDL
