MODEL 1
REMARK VINA RESULT:      -0.3      0.000      0.000
REMARK  4 active torsions:
REMARK  status: ('A' for Active; 'I' for Inactive)
REMARK    1  A    between atoms: N_7  and  C_1 
REMARK    2  A    between atoms: C_8  and  C_4 
REMARK    3  A    between atoms: C_10  and  N_7 
REMARK    4  A    between atoms: C_12  and  C_8 
ROOT
ATOM      1  C   UNL d   1     -41.265-122.337 -51.061  0.00  0.00     0.184 A 
ATOM      2  N   UNL d   1     -41.275-122.990 -51.570  0.00  0.00    -0.129 NA
ATOM      3  N   UNL d   1     -41.239-122.876 -52.388  0.00  0.00    -0.147 NA
ATOM      4  C   UNL d   1     -41.192-122.112 -52.704  0.00  0.00     0.103 A 
ATOM      5  C   UNL d   1     -41.218-121.577 -51.378  0.00  0.00     0.039 A 
ATOM      6  C   UNL d   1     -41.182-121.463 -52.195  0.00  0.00     0.022 A 
ATOM      7  C   UNL d   1     -41.207-120.924 -50.869  0.00  0.00     0.003 A 
ATOM      8  C   UNL d   1     -41.135-120.695 -52.508  0.00  0.00     0.002 A 
ATOM      9  C   UNL d   1     -41.125-120.047 -51.999  0.00  0.00     0.000 A 
ATOM     10  C   UNL d   1     -41.161-120.162 -51.177  0.00  0.00     0.000 A 
ENDROOT
BRANCH   1  11
ATOM     11  N   UNL d   1     -41.300-122.444 -50.243  0.00  0.00    -0.225 NA
BRANCH  11  12
ATOM     12  C   UNL d   1     -41.970-122.788 -49.907  0.00  0.00     0.083 A 
ATOM     13  C   UNL d   1     -42.710-122.481 -50.069  0.00  0.00     0.020 A 
ATOM     14  C   UNL d   1     -43.383-122.816 -49.740  0.00  0.00     0.013 A 
ATOM     15  C   UNL d   1     -43.313-123.476 -49.235  0.00  0.00     0.058 A 
ATOM     16  C   UNL d   1     -42.564-123.784 -49.073  0.00  0.00     0.013 A 
ATOM     17 CL   UNL d   1     -43.989-123.817 -48.901  0.00  0.00    -0.082 Cl
ATOM     18  C   UNL d   1     -41.890-123.441 -49.409  0.00  0.00     0.020 A 
ENDBRANCH  11  12
ENDBRANCH   1  11
BRANCH   4  19
ATOM     19  C   UNL d   1     -41.156-121.997 -53.522  0.00  0.00     0.021 C 
BRANCH  19  20
ATOM     20  C   UNL d   1     -41.561-122.507 -54.029  0.00  0.00     0.005 A 
ATOM     21  C   UNL d   1     -41.326-123.294 -54.093  0.00  0.00     0.021 A 
ATOM     22  C   UNL d   1     -41.731-123.804 -54.599  0.00  0.00     0.099 A 
ATOM     23  N   UNL d   1     -42.370-123.526 -55.042  0.00  0.00    -0.242 NA
ATOM     24  C   UNL d   1     -42.603-122.727 -54.973  0.00  0.00     0.099 A 
ATOM     25  C   UNL d   1     -42.192-122.224 -54.464  0.00  0.00     0.021 A 
ENDBRANCH  19  20
ENDBRANCH   4  19
TORSDOF 4
ENDMDL
MODEL 2
REMARK VINA RESULT:       0.2      1.609      4.017
REMARK  4 active torsions:
REMARK  status: ('A' for Active; 'I' for Inactive)
REMARK    1  A    between atoms: N_7  and  C_1 
REMARK    2  A    between atoms: C_8  and  C_4 
REMARK    3  A    between atoms: C_10  and  N_7 
REMARK    4  A    between atoms: C_12  and  C_8 
ROOT
ATOM      1  C   UNL d   1     -41.216-122.014 -52.641  0.00  0.00     0.184 A 
ATOM      2  N   UNL d   1     -41.291-122.823 -52.477  0.00  0.00    -0.129 NA
ATOM      3  N   UNL d   1     -41.355-123.080 -51.695  0.00  0.00    -0.147 NA
ATOM      4  C   UNL d   1     -41.346-122.537 -51.071  0.00  0.00     0.103 A 
ATOM      5  C   UNL d   1     -41.207-121.474 -52.018  0.00  0.00     0.039 A 
ATOM      6  C   UNL d   1     -41.272-121.732 -51.236  0.00  0.00     0.022 A 
ATOM      7  C   UNL d   1     -41.133-120.666 -52.181  0.00  0.00     0.003 A 
ATOM      8  C   UNL d   1     -41.262-121.183 -50.612  0.00  0.00     0.002 A 
ATOM      9  C   UNL d   1     -41.187-120.379 -50.777  0.00  0.00     0.000 A 
ATOM     10  C   UNL d   1     -41.123-120.120 -51.564  0.00  0.00     0.000 A 
ENDROOT
BRANCH   1  11
ATOM     11  N   UNL d   1     -41.152-121.749 -53.421  0.00  0.00    -0.225 NA
BRANCH  11  12
ATOM     12  C   UNL d   1     -41.612-122.098 -54.008  0.00  0.00     0.083 A 
ATOM     13  C   UNL d   1     -41.315-122.728 -54.437  0.00  0.00     0.020 A 
ATOM     14  C   UNL d   1     -41.766-123.083 -55.024  0.00  0.00     0.013 A 
ATOM     15  C   UNL d   1     -42.533-122.800 -55.186  0.00  0.00     0.058 A 
ATOM     16  C   UNL d   1     -42.830-122.163 -54.751  0.00  0.00     0.013 A 
ATOM     17 CL   UNL d   1     -42.991-123.155 -55.778  0.00  0.00    -0.082 Cl
ATOM     18  C   UNL d   1     -42.370-121.810 -54.161  0.00  0.00     0.020 A 
ENDBRANCH  11  12
ENDBRANCH   1  11
BRANCH   4  19
ATOM     19  C   UNL d   1     -41.411-122.795 -50.288  0.00  0.00     0.021 C 
BRANCH  19  20
ATOM     20  C   UNL d   1     -42.136-123.059 -49.998  0.00  0.00     0.005 A 
ATOM     21  C   UNL d   1     -42.608-123.552 -50.461  0.00  0.00     0.021 A 
ATOM     22  C   UNL d   1     -43.333-123.816 -50.172  0.00  0.00     0.099 A 
ATOM     23  N   UNL d   1     -43.587-123.587 -49.420  0.00  0.00    -0.242 NA
ATOM     24  C   UNL d   1     -43.105-123.088 -48.955  0.00  0.00     0.099 A 
ATOM     25  C   UNL d   1     -42.380-122.828 -49.254  0.00  0.00     0.021 A 
ENDBRANCH  19  20
ENDBRANCH   4  19
TORSDOF 4
ENDMDL
