MODEL 1
REMARK VINA RESULT:      -6.1      0.000      0.000
REMARK  4 active torsions:
REMARK  status: ('A' for Active; 'I' for Inactive)
REMARK    1  A    between atoms: C_16  and  C_4 
REMARK    2  A    between atoms: C_8  and  S_14 
REMARK    3  A    between atoms: C_18  and  C_9 
REMARK    4  A    between atoms: S_14  and  C_16 
ROOT
ATOM      1  N   UNL d   1     -41.882-122.802 -49.563  0.00  0.00    -0.218 NA
ATOM      2  C   UNL d   1     -42.191-122.728 -50.332  0.00  0.00     0.215 A 
ATOM      3  C   UNL d   1     -42.326-123.094 -48.960  0.00  0.00     0.104 A 
ATOM      4  N   UNL d   1     -42.973-122.960 -50.482  0.00  0.00    -0.121 NA
ATOM      5  N   UNL d   1     -43.434-123.262 -49.863  0.00  0.00    -0.143 NA
ATOM      6  C   UNL d   1     -43.122-123.329 -49.115  0.00  0.00     0.141 A 
ENDROOT
BRANCH   2   7
ATOM      7  S   UNL d   1     -41.732-122.430 -50.937  0.00  0.00    -0.045 SA
BRANCH   7   8
ATOM      8  C   UNL d   1     -41.375-122.948 -51.459  0.00  0.00     0.060 C 
BRANCH   8   9
ATOM      9  C   UNL d   1     -41.400-122.795 -52.293  0.00  0.00     0.124 A 
ATOM     10  N   UNL d   1     -41.572-122.105 -52.654  0.00  0.00    -0.059 NA
ATOM     11  C   UNL d   1     -41.528-122.220 -53.465  0.00  0.00     0.735 A 
ATOM     12  N   UNL d   1     -41.321-123.009 -53.585  0.00  0.00    -0.136 N 
ATOM     13  N   UNL d   1     -41.645-121.721 -54.117  0.00  0.00    -0.059 NA
ATOM     14  C   UNL d   1     -41.242-123.364 -52.852  0.00  0.00     0.118 A 
ATOM     15  C   UNL d   1     -41.231-123.301 -54.347  0.00  0.00     0.100 A 
ATOM     16  C   UNL d   1     -41.349-122.802 -54.998  0.00  0.00     0.041 A 
ATOM     17  C   UNL d   1     -41.556-122.013 -54.885  0.00  0.00     0.119 A 
ENDBRANCH   8   9
ENDBRANCH   7   8
ENDBRANCH   2   7
BRANCH   3  18
ATOM     18  C   UNL d   1     -42.009-123.165 -48.188  0.00  0.00     0.019 A 
ATOM     19  C   UNL d   1     -41.442-123.741 -48.052  0.00  0.00     0.002 A 
ATOM     20  C   UNL d   1     -41.125-123.812 -47.280  0.00  0.00     0.000 A 
ATOM     21  C   UNL d   1     -41.385-123.311 -46.678  0.00  0.00     0.000 A 
ATOM     22  C   UNL d   1     -41.964-122.735 -46.846  0.00  0.00     0.000 A 
ATOM     23  C   UNL d   1     -42.266-122.674 -47.603  0.00  0.00     0.002 A 
ENDBRANCH   3  18
TORSDOF 4
ENDMDL
MODEL 2
REMARK VINA RESULT:      -5.5      0.880      5.558
REMARK  4 active torsions:
REMARK  status: ('A' for Active; 'I' for Inactive)
REMARK    1  A    between atoms: C_16  and  C_4 
REMARK    2  A    between atoms: C_8  and  S_14 
REMARK    3  A    between atoms: C_18  and  C_9 
REMARK    4  A    between atoms: S_14  and  C_16 
ROOT
ATOM      1  N   UNL d   1     -41.904-122.370 -53.028  0.00  0.00    -0.218 NA
ATOM      2  C   UNL d   1     -41.677-122.754 -52.326  0.00  0.00     0.215 A 
ATOM      3  C   UNL d   1     -41.749-122.691 -53.749  0.00  0.00     0.104 A 
ATOM      4  N   UNL d   1     -41.284-123.483 -52.367  0.00  0.00    -0.121 NA
ATOM      5  N   UNL d   1     -41.123-123.817 -53.108  0.00  0.00    -0.143 NA
ATOM      6  C   UNL d   1     -41.348-123.434 -53.788  0.00  0.00     0.141 A 
ENDROOT
BRANCH   2   7
ATOM      7  S   UNL d   1     -41.839-122.420 -51.599  0.00  0.00    -0.045 SA
BRANCH   7   8
ATOM      8  C   UNL d   1     -41.319-122.537 -50.981  0.00  0.00     0.060 C 
BRANCH   8   9
ATOM      9  C   UNL d   1     -41.613-122.674 -50.198  0.00  0.00     0.124 A 
ATOM     10  N   UNL d   1     -42.369-122.623 -49.949  0.00  0.00    -0.059 NA
ATOM     11  C   UNL d   1     -42.391-122.803 -49.148  0.00  0.00     0.735 A 
ATOM     12  N   UNL d   1     -41.616-122.966 -48.918  0.00  0.00    -0.136 N 
ATOM     13  N   UNL d   1     -43.003-122.842 -48.591  0.00  0.00    -0.059 NA
ATOM     14  C   UNL d   1     -41.135-122.884 -49.575  0.00  0.00     0.118 A 
ATOM     15  C   UNL d   1     -41.450-123.167 -48.140  0.00  0.00     0.100 A 
ATOM     16  C   UNL d   1     -42.063-123.207 -47.583  0.00  0.00     0.041 A 
ATOM     17  C   UNL d   1     -42.839-123.045 -47.807  0.00  0.00     0.119 A 
ENDBRANCH   8   9
ENDBRANCH   7   8
ENDBRANCH   2   7
BRANCH   3  18
ATOM     18  C   UNL d   1     -41.980-122.300 -54.453  0.00  0.00     0.019 A 
ATOM     19  C   UNL d   1     -41.453-122.287 -55.081  0.00  0.00     0.002 A 
ATOM     20  C   UNL d   1     -41.683-121.896 -55.785  0.00  0.00     0.000 A 
ATOM     21  C   UNL d   1     -42.424-121.536 -55.835  0.00  0.00     0.000 A 
ATOM     22  C   UNL d   1     -42.939-121.566 -55.179  0.00  0.00     0.000 A 
ATOM     23  C   UNL d   1     -42.703-121.950 -54.498  0.00  0.00     0.002 A 
ENDBRANCH   3  18
TORSDOF 4
ENDMDL
