MODEL 1
REMARK VINA RESULT:      73.0      0.000      0.000
REMARK  4 active torsions:
REMARK  status: ('A' for Active; 'I' for Inactive)
REMARK    1  A    between atoms: C_11  and  N_1 
REMARK    2  A    between atoms: S_7  and  C_2 
REMARK    3  A    between atoms: C_13  and  S_7 
REMARK    4  A    between atoms: C_8  and  C_13 
REMARK       I    between atoms: N_9  and  C_8 
ROOT
ATOM      1  N   UNL d   1     -50.738  25.574  33.344  0.00  0.00    -0.254 N 
ATOM      2  C   UNL d   1     -50.509  26.365  33.326  0.00  0.00     0.182 A 
ATOM      3  C   UNL d   1     -51.540  25.376  33.350  0.00  0.00     0.274 A 
ATOM      4  C   UNL d   1     -52.107  25.970  33.337  0.00  0.00     0.104 A 
ATOM      5  N   UNL d   1     -51.081  26.960  33.313  0.00  0.00    -0.222 NA
ATOM      6  C   UNL d   1     -51.878  26.762  33.319  0.00  0.00     0.095 A 
ATOM      7  S   UNL d   1     -52.929  25.946  33.339  0.00  0.00    -0.080 SA
ATOM      8  O   UNL d   1     -51.770  24.584  33.368  0.00  0.00    -0.266 OA
ATOM      9  C   UNL d   1     -52.558  27.226  33.310  0.00  0.00     0.027 A 
ATOM     10  C   UNL d   1     -53.204  26.726  33.322  0.00  0.00     0.037 A 
ENDROOT
BRANCH   2  11
ATOM     11  S   UNL d   1     -49.701  26.570  33.320  0.00  0.00    -0.044 SA
BRANCH  11  12
ATOM     12  C   UNL d   1     -49.369  26.937  33.981  0.00  0.00     0.099 C 
BRANCH  12  13
ATOM     13  C   UNL d   1     -49.304  27.760  34.007  0.00  0.00     0.271 C 
ATOM     14  N   UNL d   1     -48.885  28.121  34.618  0.00  0.00    -0.272 N 
ATOM     15  C   UNL d   1     -48.481  27.805  35.265  0.00  0.00     0.083 A 
ATOM     16  C   UNL d   1     -48.820  28.939  34.646  0.00  0.00     0.083 A 
ATOM     17  C   UNL d   1     -48.167  28.445  35.690  0.00  0.00     0.021 A 
ATOM     18  C   UNL d   1     -48.375  29.136  35.312  0.00  0.00     0.021 A 
ATOM     19  O   UNL d   1     -49.660  28.221  33.422  0.00  0.00    -0.266 OA
ENDBRANCH  12  13
ENDBRANCH  11  12
ENDBRANCH   2  11
BRANCH   1  20
ATOM     20  C   UNL d   1     -50.175  24.981  33.356  0.00  0.00     0.069 A 
ATOM     21  C   UNL d   1     -50.403  24.189  33.306  0.00  0.00     0.018 A 
ATOM     22  C   UNL d   1     -49.831  23.595  33.319  0.00  0.00     0.002 A 
ATOM     23  C   UNL d   1     -49.032  23.791  33.382  0.00  0.00     0.000 A 
ATOM     24  C   UNL d   1     -48.805  24.583  33.432  0.00  0.00     0.002 A 
ATOM     25  C   UNL d   1     -48.447  23.193  33.396  0.00  0.00     0.000 C 
ATOM     26  C   UNL d   1     -49.377  25.178  33.420  0.00  0.00     0.018 A 
ENDBRANCH   1  20
TORSDOF 4
ENDMDL
