MODEL 1
REMARK VINA RESULT:      -5.4      0.000      0.000
REMARK  9 active torsions:
REMARK  status: ('A' for Active; 'I' for Inactive)
REMARK    1  A    between atoms: C_11  and  C_3 
REMARK    2  A    between atoms: C_12  and  N_6 
REMARK    3  A    between atoms: C_15  and  C_7 
REMARK    4  A    between atoms: O_24  and  C_11 
REMARK    5  A    between atoms: C_23  and  C_12 
REMARK    6  A    between atoms: O_26  and  C_14 
REMARK    7  A    between atoms: O_28  and  C_17 
REMARK    8  A    between atoms: C_22  and  C_23 
REMARK    9  A    between atoms: C_32  and  O_24 
ROOT
ATOM      1  C   UNL d   1     -48.181  12.788  23.206  0.00  0.00     0.080 A 
ATOM      2  C   UNL d   1     -47.375  12.891  23.037  0.00  0.00     0.267 A 
ATOM      3  C   UNL d   1     -49.504  13.312  23.205  0.00  0.00     0.107 A 
ATOM      4  C   UNL d   1     -48.455  12.088  23.533  0.00  0.00     0.108 A 
ATOM      5  C   UNL d   1     -49.779  12.611  23.532  0.00  0.00     0.208 A 
ATOM      6  N   UNL d   1     -46.847  12.278  23.201  0.00  0.00    -0.273 N 
ATOM      7  C   UNL d   1     -48.698  13.404  23.040  0.00  0.00     0.017 A 
ATOM      8  O   UNL d   1     -49.254  11.993  23.698  0.00  0.00    -0.288 OA
ATOM      9  C   UNL d   1     -47.917  11.472  23.697  0.00  0.00     0.043 A 
ATOM     10  C   UNL d   1     -47.113  11.574  23.527  0.00  0.00     0.069 A 
ATOM     11  O   UNL d   1     -47.101  13.597  22.708  0.00  0.00    -0.267 OA
ATOM     12  N   UNL d   1     -50.581  12.516  23.697  0.00  0.00    -0.121 N 
ATOM     13  C   UNL d   1     -46.583  10.961  23.691  0.00  0.00     0.019 C 
ENDROOT
BRANCH   6  14
ATOM     14  C   UNL d   1     -46.042  12.381  23.031  0.00  0.00     0.083 C 
BRANCH  14  15
ATOM     15  C   UNL d   1     -45.772  12.251  22.261  0.00  0.00     0.019 C 
BRANCH  15  16
ATOM     16  C   UNL d   1     -44.965  12.360  22.106  0.00  0.00     0.004 A 
ATOM     17  C   UNL d   1     -44.432  11.794  22.334  0.00  0.00     0.026 A 
ATOM     18  C   UNL d   1     -43.633  11.902  22.181  0.00  0.00     0.116 A 
ATOM     19  C   UNL d   1     -43.372  12.592  21.792  0.00  0.00     0.116 A 
ATOM     20  C   UNL d   1     -43.922  13.159  21.565  0.00  0.00     0.026 A 
ATOM     21  C   UNL d   1     -44.719  13.047  21.720  0.00  0.00     0.002 A 
BRANCH  18  22
ATOM     22  O   UNL d   1     -43.079  11.331  22.410  0.00  0.00    -0.326 OA
ATOM     23  C   UNL d   1     -43.177  10.940  23.122  0.00  0.00     0.181 C 
ENDBRANCH  18  22
BRANCH  19  24
ATOM     24  O   UNL d   1     -42.571  12.707  21.635  0.00  0.00    -0.326 OA
ATOM     25  C   UNL d   1     -42.334  13.286  21.104  0.00  0.00     0.181 C 
ENDBRANCH  19  24
ENDBRANCH  15  16
ENDBRANCH  14  15
ENDBRANCH   6  14
BRANCH   7  26
ATOM     26  C   UNL d   1     -48.424  14.108  22.712  0.00  0.00     0.020 A 
ATOM     27  C   UNL d   1     -48.494  14.240  21.908  0.00  0.00     0.099 A 
ATOM     28  N   UNL d   1     -48.224  14.936  21.579  0.00  0.00    -0.242 NA
ATOM     29  C   UNL d   1     -47.875  15.515  22.064  0.00  0.00     0.099 A 
ATOM     30  C   UNL d   1     -47.805  15.378  22.878  0.00  0.00     0.021 A 
ATOM     31  C   UNL d   1     -48.079  14.675  23.203  0.00  0.00     0.003 A 
ENDBRANCH   7  26
BRANCH   3  32
ATOM     32  C   UNL d   1     -50.030  13.930  23.039  0.00  0.00     0.304 C 
ATOM     33  O   UNL d   1     -50.363  14.001  22.292  0.00  0.00    -0.259 OA
BRANCH  32  34
ATOM     34  O   UNL d   1     -50.216  14.471  23.628  0.00  0.00    -0.271 OA
BRANCH  34  35
ATOM     35  C   UNL d   1     -50.974  14.797  23.696  0.00  0.00     0.126 C 
ATOM     36  C   UNL d   1     -51.064  15.612  23.698  0.00  0.00     0.029 C 
ENDBRANCH  34  35
ENDBRANCH  32  34
ENDBRANCH   3  32
TORSDOF 9
ENDMDL
MODEL 2
REMARK VINA RESULT:      -4.9      1.223      2.520
REMARK  9 active torsions:
REMARK  status: ('A' for Active; 'I' for Inactive)
REMARK    1  A    between atoms: C_11  and  C_3 
REMARK    2  A    between atoms: C_12  and  N_6 
REMARK    3  A    between atoms: C_15  and  C_7 
REMARK    4  A    between atoms: O_24  and  C_11 
REMARK    5  A    between atoms: C_23  and  C_12 
REMARK    6  A    between atoms: O_26  and  C_14 
REMARK    7  A    between atoms: O_28  and  C_17 
REMARK    8  A    between atoms: C_22  and  C_23 
REMARK    9  A    between atoms: C_32  and  O_24 
ROOT
ATOM      1  C   UNL d   1     -48.062  13.925  22.893  0.00  0.00     0.080 A 
ATOM      2  C   UNL d   1     -47.518  13.318  23.043  0.00  0.00     0.267 A 
ATOM      3  C   UNL d   1     -49.408  14.327  22.663  0.00  0.00     0.107 A 
ATOM      4  C   UNL d   1     -47.815  14.704  22.824  0.00  0.00     0.108 A 
ATOM      5  C   UNL d   1     -49.161  15.107  22.595  0.00  0.00     0.208 A 
ATOM      6  N   UNL d   1     -46.717  13.505  23.125  0.00  0.00    -0.273 N 
ATOM      7  C   UNL d   1     -48.855  13.729  22.813  0.00  0.00     0.017 A 
ATOM      8  O   UNL d   1     -48.360  15.299  22.675  0.00  0.00    -0.288 OA
ATOM      9  C   UNL d   1     -47.006  14.887  22.907  0.00  0.00     0.043 A 
ATOM     10  C   UNL d   1     -46.462  14.281  23.058  0.00  0.00     0.069 A 
ATOM     11  O   UNL d   1     -47.769  12.535  23.111  0.00  0.00    -0.267 OA
ATOM     12  N   UNL d   1     -49.709  15.705  22.445  0.00  0.00    -0.121 N 
ATOM     13  C   UNL d   1     -45.660  14.467  23.139  0.00  0.00     0.019 C 
ENDROOT
BRANCH   6  14
ATOM     14  C   UNL d   1     -46.173  12.897  23.275  0.00  0.00     0.083 C 
BRANCH  14  15
ATOM     15  C   UNL d   1     -45.847  12.482  22.640  0.00  0.00     0.019 C 
BRANCH  15  16
ATOM     16  C   UNL d   1     -45.248  11.931  22.799  0.00  0.00     0.004 A 
ATOM     17  C   UNL d   1     -44.514  12.028  22.470  0.00  0.00     0.026 A 
ATOM     18  C   UNL d   1     -43.922  11.483  22.628  0.00  0.00     0.116 A 
ATOM     19  C   UNL d   1     -44.075  10.832  23.125  0.00  0.00     0.116 A 
ATOM     20  C   UNL d   1     -44.823  10.744  23.454  0.00  0.00     0.026 A 
ATOM     21  C   UNL d   1     -45.413  11.291  23.294  0.00  0.00     0.002 A 
BRANCH  18  22
ATOM     22  O   UNL d   1     -43.168  11.572  22.297  0.00  0.00    -0.326 OA
ATOM     23  C   UNL d   1     -42.949  12.297  21.986  0.00  0.00     0.181 C 
ENDBRANCH  18  22
BRANCH  19  24
ATOM     24  O   UNL d   1     -43.485  10.281  23.289  0.00  0.00    -0.326 OA
ATOM     25  C   UNL d   1     -43.665   9.592  23.698  0.00  0.00     0.181 C 
ENDBRANCH  19  24
ENDBRANCH  15  16
ENDBRANCH  14  15
ENDBRANCH   6  14
BRANCH   7  26
ATOM     26  C   UNL d   1     -49.106  12.946  22.882  0.00  0.00     0.020 A 
ATOM     27  C   UNL d   1     -49.374  12.664  23.600  0.00  0.00     0.099 A 
ATOM     28  N   UNL d   1     -49.623  11.890  23.673  0.00  0.00    -0.242 NA
ATOM     29  C   UNL d   1     -49.603  11.385  23.011  0.00  0.00     0.099 A 
ATOM     30  C   UNL d   1     -49.331  11.676  22.284  0.00  0.00     0.021 A 
ATOM     31  C   UNL d   1     -49.082  12.455  22.218  0.00  0.00     0.003 A 
ENDBRANCH   7  26
BRANCH   3  32
ATOM     32  C   UNL d   1     -50.210  14.134  22.582  0.00  0.00     0.304 C 
ATOM     33  O   UNL d   1     -50.706  14.144  23.236  0.00  0.00    -0.259 OA
BRANCH  32  34
ATOM     34  O   UNL d   1     -50.504  13.934  21.842  0.00  0.00    -0.271 OA
BRANCH  34  35
ATOM     35  C   UNL d   1     -51.046  14.416  21.444  0.00  0.00     0.126 C 
ATOM     36  C   UNL d   1     -51.064  14.410  20.624  0.00  0.00     0.029 C 
ENDBRANCH  34  35
ENDBRANCH  32  34
ENDBRANCH   3  32
TORSDOF 9
ENDMDL
MODEL 3
REMARK VINA RESULT:      -2.5      1.173      2.254
REMARK  9 active torsions:
REMARK  status: ('A' for Active; 'I' for Inactive)
REMARK    1  A    between atoms: C_11  and  C_3 
REMARK    2  A    between atoms: C_12  and  N_6 
REMARK    3  A    between atoms: C_15  and  C_7 
REMARK    4  A    between atoms: O_24  and  C_11 
REMARK    5  A    between atoms: C_23  and  C_12 
REMARK    6  A    between atoms: O_26  and  C_14 
REMARK    7  A    between atoms: O_28  and  C_17 
REMARK    8  A    between atoms: C_22  and  C_23 
REMARK    9  A    between atoms: C_32  and  O_24 
ROOT
ATOM      1  C   UNL d   1     -47.849  13.980  22.729  0.00  0.00     0.080 A 
ATOM      2  C   UNL d   1     -47.155  13.526  22.714  0.00  0.00     0.267 A 
ATOM      3  C   UNL d   1     -49.272  14.033  22.750  0.00  0.00     0.107 A 
ATOM      4  C   UNL d   1     -47.816  14.800  22.736  0.00  0.00     0.108 A 
ATOM      5  C   UNL d   1     -49.239  14.853  22.757  0.00  0.00     0.208 A 
ATOM      6  N   UNL d   1     -46.423  13.909  22.708  0.00  0.00    -0.273 N 
ATOM      7  C   UNL d   1     -48.572  13.590  22.735  0.00  0.00     0.017 A 
ATOM      8  O   UNL d   1     -48.507  15.242  22.750  0.00  0.00    -0.288 OA
ATOM      9  C   UNL d   1     -47.074  15.181  22.729  0.00  0.00     0.043 A 
ATOM     10  C   UNL d   1     -46.381  14.728  22.715  0.00  0.00     0.069 A 
ATOM     11  O   UNL d   1     -47.191  12.702  22.707  0.00  0.00    -0.267 OA
ATOM     12  N   UNL d   1     -49.933  15.297  22.771  0.00  0.00    -0.121 N 
ATOM     13  C   UNL d   1     -45.648  15.110  22.708  0.00  0.00     0.019 C 
ENDROOT
BRANCH   6  14
ATOM     14  C   UNL d   1     -45.729  13.455  22.693  0.00  0.00     0.083 C 
BRANCH  14  15
ATOM     15  C   UNL d   1     -45.477  13.128  21.978  0.00  0.00     0.019 C 
BRANCH  15  16
ATOM     16  C   UNL d   1     -44.691  12.870  21.922  0.00  0.00     0.004 A 
ATOM     17  C   UNL d   1     -44.463  12.191  22.301  0.00  0.00     0.026 A 
ATOM     18  C   UNL d   1     -43.685  11.936  22.246  0.00  0.00     0.116 A 
ATOM     19  C   UNL d   1     -43.132  12.375  21.803  0.00  0.00     0.116 A 
ATOM     20  C   UNL d   1     -43.374  13.063  21.424  0.00  0.00     0.026 A 
ATOM     21  C   UNL d   1     -44.153  13.314  21.481  0.00  0.00     0.002 A 
BRANCH  18  22
ATOM     22  O   UNL d   1     -43.440  11.243  22.628  0.00  0.00    -0.326 OA
ATOM     23  C   UNL d   1     -43.871  10.963  23.265  0.00  0.00     0.181 C 
ENDBRANCH  18  22
BRANCH  19  24
ATOM     24  O   UNL d   1     -42.349  12.125  21.744  0.00  0.00    -0.326 OA
ATOM     25  C   UNL d   1     -41.740  12.675  21.726  0.00  0.00     0.181 C 
ENDBRANCH  19  24
ENDBRANCH  15  16
ENDBRANCH  14  15
ENDBRANCH   6  14
BRANCH   7  26
ATOM     26  C   UNL d   1     -48.607  12.767  22.728  0.00  0.00     0.020 A 
ATOM     27  C   UNL d   1     -48.675  12.354  23.430  0.00  0.00     0.099 A 
ATOM     28  N   UNL d   1     -48.711  11.538  23.427  0.00  0.00    -0.242 NA
ATOM     29  C   UNL d   1     -48.678  11.125  22.705  0.00  0.00     0.099 A 
ATOM     30  C   UNL d   1     -48.608  11.548  21.996  0.00  0.00     0.021 A 
ATOM     31  C   UNL d   1     -48.573  12.368  22.006  0.00  0.00     0.003 A 
ENDBRANCH   7  26
BRANCH   3  32
ATOM     32  C   UNL d   1     -50.003  13.645  22.756  0.00  0.00     0.304 C 
ATOM     33  O   UNL d   1     -50.417  13.554  23.459  0.00  0.00    -0.259 OA
BRANCH  32  34
ATOM     34  O   UNL d   1     -50.311  13.351  22.054  0.00  0.00    -0.271 OA
BRANCH  34  35
ATOM     35  C   UNL d   1     -50.968  13.696  21.688  0.00  0.00     0.126 C 
ATOM     36  C   UNL d   1     -51.032  13.674  20.870  0.00  0.00     0.029 C 
ENDBRANCH  34  35
ENDBRANCH  32  34
ENDBRANCH   3  32
TORSDOF 9
ENDMDL
