MODEL 1
REMARK VINA RESULT:      54.1      0.000      0.000
REMARK  6 active torsions:
REMARK  status: ('A' for Active; 'I' for Inactive)
REMARK    1  A    between atoms: C_3  and  C_4 
REMARK    2  A    between atoms: C_9  and  O_18 
REMARK    3  A    between atoms: O_17  and  C_10 
REMARK    4  A    between atoms: C_21  and  O_17 
REMARK    5  A    between atoms: O_18  and  C_20 
REMARK    6  A    between atoms: C_20  and  C_21 
ROOT
ATOM      1  N   UNL d   1      56.041  49.678  51.187  0.00  0.00    -0.191 NA
ATOM      2  C   UNL d   1      56.831  49.684  51.035  0.00  0.00     0.101 C 
ATOM      3  C   UNL d   1      57.637  49.689  50.879  0.00  0.00     0.068 A 
ATOM      4  C   UNL d   1      59.254  49.701  50.568  0.00  0.00     0.100 A 
ATOM      5  C   UNL d   1      57.906  49.700  50.104  0.00  0.00     0.012 A 
ATOM      6  C   UNL d   1      58.176  49.685  51.505  0.00  0.00     0.012 A 
ATOM      7  C   UNL d   1      58.986  49.690  51.349  0.00  0.00     0.025 A 
ATOM      8  C   UNL d   1      58.716  49.706  49.947  0.00  0.00     0.025 A 
ENDROOT
BRANCH   4   9
ATOM      9  O   UNL d   1      60.068  49.706  50.411  0.00  0.00    -0.303 OA
BRANCH   9  10
ATOM     10  C   UNL d   1      60.408  49.089  49.982  0.00  0.00     0.149 C 
BRANCH  10  11
ATOM     11  C   UNL d   1      61.038  48.664  50.303  0.00  0.00     0.149 C 
BRANCH  11  12
ATOM     12  O   UNL d   1      60.900  48.060  50.854  0.00  0.00    -0.303 OA
BRANCH  12  13
ATOM     13  C   UNL d   1      61.053  47.255  50.651  0.00  0.00     0.100 A 
ATOM     14  C   UNL d   1      60.802  46.650  51.154  0.00  0.00     0.025 A 
ATOM     15  C   UNL d   1      60.952  45.863  50.956  0.00  0.00     0.005 A 
ATOM     16  C   UNL d   1      61.352  45.684  50.256  0.00  0.00     0.039 A 
ATOM     17  C   UNL d   1      61.598  46.287  49.761  0.00  0.00     0.005 A 
ATOM     18  C   UNL d   1      61.448  47.074  49.959  0.00  0.00     0.025 A 
BRANCH  16  19
ATOM     19  C   UNL d   1      61.502  44.894  50.057  0.00  0.00     0.196 C 
ATOM     20  O   UNL d   1      61.277  44.293  50.564  0.00  0.00    -0.287 OA
ATOM     21  C   UNL d   1      61.879  44.715  49.346  0.00  0.00     0.045 C 
ENDBRANCH  16  19
ENDBRANCH  12  13
ENDBRANCH  11  12
ENDBRANCH  10  11
ENDBRANCH   9  10
ENDBRANCH   4   9
TORSDOF 6
ENDMDL
