MODEL 1
REMARK VINA RESULT:      33.4      0.000      0.000
REMARK  1 active torsions:
REMARK  status: ('A' for Active; 'I' for Inactive)
REMARK    1  A    between atoms: C_10  and  N_2 
ROOT
ATOM      1  C   UNL d   1      46.279 -17.615  42.742  0.00  0.00     0.759 A 
ATOM      2  N   UNL d   1      46.209 -17.373  43.549  0.00  0.00    -0.103 N 
ATOM      3  N   UNL d   1      46.404 -18.408  42.566  0.00  0.00    -0.038 N 
ATOM      4  C   UNL d   1      46.268 -17.936  44.142  0.00  0.00     0.280 A 
ATOM      5  N   UNL d   1      46.245 -17.185  42.034  0.00  0.00     0.066 NA
ATOM      6  C   UNL d   1      46.393 -18.730  43.971  0.00  0.00     0.075 A 
ATOM      7  N   UNL d   1      46.449 -18.470  41.723  0.00  0.00    -0.025 NA
ATOM      8  N   UNL d   1      46.352 -17.729  41.413  0.00  0.00    -0.007 NA
ATOM      9  C   UNL d   1      46.463 -18.972  43.164  0.00  0.00     0.107 A 
ATOM     10  O   UNL d   1      46.199 -17.695  44.945  0.00  0.00    -0.266 OA
ATOM     11  C   UNL d   1      46.452 -19.293  44.565  0.00  0.00     0.006 A 
ATOM     12  C   UNL d   1      46.588 -19.765  42.988  0.00  0.00     0.020 A 
ATOM     13  C   UNL d   1      46.577 -20.088  44.394  0.00  0.00     0.000 A 
ATOM     14  C   UNL d   1      46.647 -20.330  43.587  0.00  0.00     0.002 A 
ENDROOT
BRANCH   2  15
ATOM     15  C   UNL d   1      46.085 -16.585  43.722  0.00  0.00     0.084 A 
ATOM     16  C   UNL d   1      45.443 -16.342  44.176  0.00  0.00     0.017 A 
ATOM     17  C   UNL d   1      44.960 -16.845  44.438  0.00  0.00     0.002 C 
ATOM     18  C   UNL d   1      45.317 -15.551  44.351  0.00  0.00     0.002 A 
ATOM     19  C   UNL d   1      45.855 -14.974  44.060  0.00  0.00     0.000 A 
ATOM     20  C   UNL d   1      46.510 -15.198  43.599  0.00  0.00     0.002 A 
ATOM     21  C   UNL d   1      46.624 -16.009  43.431  0.00  0.00     0.018 A 
ENDBRANCH   2  15
TORSDOF 1
ENDMDL
MODEL 2
REMARK VINA RESULT:      34.4      7.036      7.672
REMARK  1 active torsions:
REMARK  status: ('A' for Active; 'I' for Inactive)
REMARK    1  A    between atoms: C_10  and  N_2 
ROOT
ATOM      1  C   UNL d   1      44.134 -16.148  36.688  0.00  0.00     0.759 A 
ATOM      2  N   UNL d   1      43.733 -15.438  36.910  0.00  0.00    -0.103 N 
ATOM      3  N   UNL d   1      44.952 -16.145  36.616  0.00  0.00    -0.038 N 
ATOM      4  C   UNL d   1      44.169 -14.758  37.050  0.00  0.00     0.280 A 
ATOM      5  N   UNL d   1      43.851 -16.907  36.514  0.00  0.00     0.066 NA
ATOM      6  C   UNL d   1      44.988 -14.751  36.979  0.00  0.00     0.075 A 
ATOM      7  N   UNL d   1      45.183 -16.927  36.390  0.00  0.00    -0.025 NA
ATOM      8  N   UNL d   1      44.512 -17.378  36.331  0.00  0.00    -0.007 NA
ATOM      9  C   UNL d   1      45.389 -15.460  36.757  0.00  0.00     0.107 A 
ATOM     10  O   UNL d   1      43.770 -14.051  37.271  0.00  0.00    -0.266 OA
ATOM     11  C   UNL d   1      45.425 -14.071  37.119  0.00  0.00     0.006 A 
ATOM     12  C   UNL d   1      46.208 -15.458  36.685  0.00  0.00     0.020 A 
ATOM     13  C   UNL d   1      46.245 -14.063  37.048  0.00  0.00     0.000 A 
ATOM     14  C   UNL d   1      46.646 -14.773  36.826  0.00  0.00     0.002 A 
ENDROOT
BRANCH   2  15
ATOM     15  C   UNL d   1      42.920 -15.442  36.982  0.00  0.00     0.084 A 
ATOM     16  C   UNL d   1      42.549 -15.209  37.679  0.00  0.00     0.017 A 
ATOM     17  C   UNL d   1      42.957 -14.989  38.262  0.00  0.00     0.002 C 
ATOM     18  C   UNL d   1      41.732 -15.212  37.753  0.00  0.00     0.002 A 
ATOM     19  C   UNL d   1      41.262 -15.459  37.101  0.00  0.00     0.000 A 
ATOM     20  C   UNL d   1      41.616 -15.698  36.387  0.00  0.00     0.002 A 
ATOM     21  C   UNL d   1      42.449 -15.688  36.330  0.00  0.00     0.018 A 
ENDBRANCH   2  15
TORSDOF 1
ENDMDL
MODEL 3
REMARK VINA RESULT:      34.6      2.033      3.229
REMARK  1 active torsions:
REMARK  status: ('A' for Active; 'I' for Inactive)
REMARK    1  A    between atoms: C_10  and  N_2 
ROOT
ATOM      1  C   UNL d   1      45.778 -18.307  42.382  0.00  0.00     0.759 A 
ATOM      2  N   UNL d   1      46.076 -19.073  42.578  0.00  0.00    -0.103 N 
ATOM      3  N   UNL d   1      45.766 -18.066  41.596  0.00  0.00    -0.038 N 
ATOM      4  C   UNL d   1      46.348 -19.563  41.979  0.00  0.00     0.280 A 
ATOM      5  N   UNL d   1      45.471 -17.699  42.854  0.00  0.00     0.066 NA
ATOM      6  C   UNL d   1      46.338 -19.325  41.192  0.00  0.00     0.075 A 
ATOM      7  N   UNL d   1      45.441 -17.285  41.583  0.00  0.00    -0.025 NA
ATOM      8  N   UNL d   1      45.267 -17.074  42.345  0.00  0.00    -0.007 NA
ATOM      9  C   UNL d   1      46.040 -18.559  40.996  0.00  0.00     0.107 A 
ATOM     10  O   UNL d   1      46.645 -20.325  42.174  0.00  0.00    -0.266 OA
ATOM     11  C   UNL d   1      46.611 -19.815  40.593  0.00  0.00     0.006 A 
ATOM     12  C   UNL d   1      46.028 -18.318  40.210  0.00  0.00     0.020 A 
ATOM     13  C   UNL d   1      46.601 -19.578  39.805  0.00  0.00     0.000 A 
ATOM     14  C   UNL d   1      46.303 -18.812  39.609  0.00  0.00     0.002 A 
ENDROOT
BRANCH   2  15
ATOM     15  C   UNL d   1      46.087 -19.312  43.358  0.00  0.00     0.084 A 
ATOM     16  C   UNL d   1      45.619 -19.934  43.624  0.00  0.00     0.017 A 
ATOM     17  C   UNL d   1      45.172 -20.293  43.148  0.00  0.00     0.002 C 
ATOM     18  C   UNL d   1      45.629 -20.175  44.407  0.00  0.00     0.002 A 
ATOM     19  C   UNL d   1      46.129 -19.777  44.954  0.00  0.00     0.000 A 
ATOM     20  C   UNL d   1      46.611 -19.145  44.707  0.00  0.00     0.002 A 
ATOM     21  C   UNL d   1      46.588 -18.913  43.905  0.00  0.00     0.018 A 
ENDBRANCH   2  15
TORSDOF 1
ENDMDL
