MODEL 1
REMARK VINA RESULT:      -4.8      0.000      0.000
REMARK  0 active torsions:
REMARK  status: ('A' for Active; 'I' for Inactive)
ROOT
ATOM      1  N   UNL d   1      57.218  -1.059  31.245  0.00  0.00    -0.176 N 
ATOM      2  C   UNL d   1      57.615  -0.335  31.232  0.00  0.00     0.167 A 
ATOM      3  N   UNL d   1      57.385  -1.623  30.704  0.00  0.00    -0.150 NA
ATOM      4  C   UNL d   1      56.634  -1.192  31.838  0.00  0.00     0.283 A 
ATOM      5  N   UNL d   1      57.424   0.249  31.814  0.00  0.00    -0.227 NA
ATOM      6  C   UNL d   1      57.966  -1.488  30.115  0.00  0.00     0.159 A 
ATOM      7  C   UNL d   1      56.449  -0.617  32.406  0.00  0.00     0.076 A 
ATOM      8  C   UNL d   1      58.175  -0.182  30.679  0.00  0.00     0.038 A 
ATOM      9  C   UNL d   1      56.846   0.106  32.393  0.00  0.00     0.088 A 
ATOM     10  C   UNL d   1      58.363  -0.765  30.103  0.00  0.00     0.033 A 
ATOM     11  O   UNL d   1      56.234  -1.921  31.850  0.00  0.00    -0.265 OA
ATOM     12 CL   UNL d   1      58.135  -2.054  29.571  0.00  0.00    -0.060 Cl
ATOM     13  C   UNL d   1      55.880  -0.759  32.976  0.00  0.00     0.006 A 
ATOM     14  C   UNL d   1      58.572   0.541  30.667  0.00  0.00     0.003 A 
ATOM     15  C   UNL d   1      58.926  -0.613  29.546  0.00  0.00     0.003 A 
ATOM     16  C   UNL d   1      56.670   0.682  32.952  0.00  0.00     0.019 A 
ATOM     17  C   UNL d   1      55.699  -0.186  33.539  0.00  0.00     0.000 A 
ATOM     18  C   UNL d   1      59.156   0.682  30.078  0.00  0.00     0.000 A 
ATOM     19  C   UNL d   1      59.323   0.110  29.534  0.00  0.00     0.000 A 
ATOM     20  C   UNL d   1      56.095   0.537  33.527  0.00  0.00     0.002 A 
ENDROOT
TORSDOF 0
ENDMDL
MODEL 2
REMARK VINA RESULT:      -4.3      2.102      4.041
REMARK  0 active torsions:
REMARK  status: ('A' for Active; 'I' for Inactive)
ROOT
ATOM      1  N   UNL d   1      57.566   0.680  32.939  0.00  0.00    -0.176 N 
ATOM      2  C   UNL d   1      56.790   0.679  32.660  0.00  0.00     0.167 A 
ATOM      3  N   UNL d   1      57.718   0.681  33.723  0.00  0.00    -0.150 NA
ATOM      4  C   UNL d   1      58.199   0.680  32.380  0.00  0.00     0.283 A 
ATOM      5  N   UNL d   1      56.651   0.678  31.826  0.00  0.00    -0.227 NA
ATOM      6  C   UNL d   1      57.087   0.680  34.276  0.00  0.00     0.159 A 
ATOM      7  C   UNL d   1      58.059   0.679  31.563  0.00  0.00     0.076 A 
ATOM      8  C   UNL d   1      56.170   0.678  33.169  0.00  0.00     0.038 A 
ATOM      9  C   UNL d   1      57.282   0.678  31.285  0.00  0.00     0.088 A 
ATOM     10  C   UNL d   1      56.311   0.679  33.998  0.00  0.00     0.033 A 
ATOM     11  O   UNL d   1      58.981   0.681  32.660  0.00  0.00    -0.265 OA
ATOM     12 CL   UNL d   1      57.237   0.681  35.066  0.00  0.00    -0.060 Cl
ATOM     13  C   UNL d   1      58.682   0.679  31.032  0.00  0.00     0.006 A 
ATOM     14  C   UNL d   1      55.393   0.677  32.891  0.00  0.00     0.003 A 
ATOM     15  C   UNL d   1      55.689   0.679  34.512  0.00  0.00     0.003 A 
ATOM     16  C   UNL d   1      57.134   0.677  30.478  0.00  0.00     0.019 A 
ATOM     17  C   UNL d   1      58.540   0.678  30.221  0.00  0.00     0.000 A 
ATOM     18  C   UNL d   1      54.757   0.677  33.442  0.00  0.00     0.000 A 
ATOM     19  C   UNL d   1      54.912   0.678  34.233  0.00  0.00     0.000 A 
ATOM     20  C   UNL d   1      57.763   0.677  29.942  0.00  0.00     0.002 A 
ENDROOT
TORSDOF 0
ENDMDL
MODEL 3
REMARK VINA RESULT:      -4.2      1.883      2.253
REMARK  0 active torsions:
REMARK  status: ('A' for Active; 'I' for Inactive)
ROOT
ATOM      1  N   UNL d   1      57.578   0.677  32.941  0.00  0.00    -0.176 N 
ATOM      2  C   UNL d   1      57.124   0.675  32.253  0.00  0.00     0.167 A 
ATOM      3  N   UNL d   1      58.377   0.679  32.902  0.00  0.00    -0.150 NA
ATOM      4  C   UNL d   1      57.185   0.678  33.688  0.00  0.00     0.283 A 
ATOM      5  N   UNL d   1      56.280   0.672  32.316  0.00  0.00    -0.227 NA
ATOM      6  C   UNL d   1      58.764   0.679  32.159  0.00  0.00     0.159 A 
ATOM      7  C   UNL d   1      56.359   0.676  33.746  0.00  0.00     0.076 A 
ATOM      8  C   UNL d   1      57.471   0.674  31.530  0.00  0.00     0.038 A 
ATOM      9  C   UNL d   1      55.904   0.673  33.057  0.00  0.00     0.088 A 
ATOM     10  C   UNL d   1      58.310   0.676  31.470  0.00  0.00     0.033 A 
ATOM     11  O   UNL d   1      57.643   0.681  34.382  0.00  0.00    -0.265 OA
ATOM     12 CL   UNL d   1      59.567   0.681  32.117  0.00  0.00    -0.060 Cl
ATOM     13  C   UNL d   1      55.990   0.676  34.476  0.00  0.00     0.006 A 
ATOM     14  C   UNL d   1      57.017   0.671  30.841  0.00  0.00     0.003 A 
ATOM     15  C   UNL d   1      58.662   0.676  30.745  0.00  0.00     0.003 A 
ATOM     16  C   UNL d   1      55.085   0.671  33.104  0.00  0.00     0.019 A 
ATOM     17  C   UNL d   1      55.168   0.674  34.531  0.00  0.00     0.000 A 
ATOM     18  C   UNL d   1      57.402   0.671  30.093  0.00  0.00     0.000 A 
ATOM     19  C   UNL d   1      58.208   0.673  30.056  0.00  0.00     0.000 A 
ATOM     20  C   UNL d   1      54.714   0.671  33.842  0.00  0.00     0.002 A 
ENDROOT
TORSDOF 0
ENDMDL
MODEL 4
REMARK VINA RESULT:      -3.6      1.815      2.707
REMARK  0 active torsions:
REMARK  status: ('A' for Active; 'I' for Inactive)
ROOT
ATOM      1  N   UNL d   1      58.922  -0.673  29.883  0.00  0.00    -0.176 N 
ATOM      2  C   UNL d   1      58.573  -1.420  29.883  0.00  0.00     0.167 A 
ATOM      3  N   UNL d   1      59.553  -0.518  29.418  0.00  0.00    -0.150 NA
ATOM      4  C   UNL d   1      58.600  -0.073  30.382  0.00  0.00     0.283 A 
ATOM      5  N   UNL d   1      57.905  -1.563  30.382  0.00  0.00    -0.227 NA
ATOM      6  C   UNL d   1      59.871  -1.116  28.923  0.00  0.00     0.159 A 
ATOM      7  C   UNL d   1      57.945  -0.217  30.870  0.00  0.00     0.076 A 
ATOM      8  C   UNL d   1      58.858  -2.008  29.418  0.00  0.00     0.038 A 
ATOM      9  C   UNL d   1      57.596  -0.964  30.870  0.00  0.00     0.088 A 
ATOM     10  C   UNL d   1      59.522  -1.863  28.923  0.00  0.00     0.033 A 
ATOM     11  O   UNL d   1      58.951   0.680  30.382  0.00  0.00    -0.265 OA
ATOM     12 CL   UNL d   1      60.506  -0.963  28.455  0.00  0.00    -0.060 Cl
ATOM     13  C   UNL d   1      57.643   0.373  31.349  0.00  0.00     0.006 A 
ATOM     14  C   UNL d   1      58.509  -2.756  29.418  0.00  0.00     0.003 A 
ATOM     15  C   UNL d   1      59.811  -2.453  28.455  0.00  0.00     0.003 A 
ATOM     16  C   UNL d   1      56.948  -1.116  31.349  0.00  0.00     0.019 A 
ATOM     17  C   UNL d   1      56.992   0.228  31.833  0.00  0.00     0.000 A 
ATOM     18  C   UNL d   1      58.825  -3.359  28.923  0.00  0.00     0.000 A 
ATOM     19  C   UNL d   1      59.462  -3.200  28.455  0.00  0.00     0.000 A 
ATOM     20  C   UNL d   1      56.643  -0.520  31.833  0.00  0.00     0.002 A 
ENDROOT
TORSDOF 0
ENDMDL
MODEL 5
REMARK VINA RESULT:      -3.4      9.504      9.798
REMARK  0 active torsions:
REMARK  status: ('A' for Active; 'I' for Inactive)
ROOT
ATOM      1  N   UNL d   1      58.270  -9.815  31.826  0.00  0.00    -0.176 N 
ATOM      2  C   UNL d   1      58.978  -9.815  31.403  0.00  0.00     0.167 A 
ATOM      3  N   UNL d   1      58.274  -9.814  32.626  0.00  0.00    -0.150 NA
ATOM      4  C   UNL d   1      57.541  -9.815  31.401  0.00  0.00     0.283 A 
ATOM      5  N   UNL d   1      58.953  -9.816  30.557  0.00  0.00    -0.227 NA
ATOM      6  C   UNL d   1      58.999  -9.813  33.046  0.00  0.00     0.159 A 
ATOM      7  C   UNL d   1      57.520  -9.816  30.572  0.00  0.00     0.076 A 
ATOM      8  C   UNL d   1      59.685  -9.815  31.782  0.00  0.00     0.038 A 
ATOM      9  C   UNL d   1      58.229  -9.817  30.149  0.00  0.00     0.088 A 
ATOM     10  C   UNL d   1      59.707  -9.814  32.623  0.00  0.00     0.033 A 
ATOM     11  O   UNL d   1      56.828  -9.815  31.827  0.00  0.00    -0.265 OA
ATOM     12 CL   UNL d   1      59.005  -9.813  33.850  0.00  0.00    -0.060 Cl
ATOM     13  C   UNL d   1      56.807  -9.817  30.171  0.00  0.00     0.006 A 
ATOM     14  C   UNL d   1      60.393  -9.815  31.359  0.00  0.00     0.003 A 
ATOM     15  C   UNL d   1      60.416  -9.813  33.006  0.00  0.00     0.003 A 
ATOM     16  C   UNL d   1      58.218  -9.817  29.328  0.00  0.00     0.019 A 
ATOM     17  C   UNL d   1      56.789  -9.818  29.348  0.00  0.00     0.000 A 
ATOM     18  C   UNL d   1      61.123  -9.814  31.776  0.00  0.00     0.000 A 
ATOM     19  C   UNL d   1      61.124  -9.813  32.583  0.00  0.00     0.000 A 
ATOM     20  C   UNL d   1      57.497  -9.818  28.925  0.00  0.00     0.002 A 
ENDROOT
TORSDOF 0
ENDMDL
MODEL 6
REMARK VINA RESULT:      -3.4      1.603      1.844
REMARK  0 active torsions:
REMARK  status: ('A' for Active; 'I' for Inactive)
ROOT
ATOM      1  N   UNL d   1      57.932   0.681  30.658  0.00  0.00    -0.176 N 
ATOM      2  C   UNL d   1      58.615   0.680  31.122  0.00  0.00     0.167 A 
ATOM      3  N   UNL d   1      57.982   0.681  29.860  0.00  0.00    -0.150 NA
ATOM      4  C   UNL d   1      57.180   0.681  31.040  0.00  0.00     0.283 A 
ATOM      5  N   UNL d   1      58.540   0.679  31.964  0.00  0.00    -0.227 NA
ATOM      6  C   UNL d   1      58.731   0.681  29.483  0.00  0.00     0.159 A 
ATOM      7  C   UNL d   1      57.111   0.680  31.866  0.00  0.00     0.076 A 
ATOM      8  C   UNL d   1      59.342   0.679  30.784  0.00  0.00     0.038 A 
ATOM      9  C   UNL d   1      57.793   0.679  32.330  0.00  0.00     0.088 A 
ATOM     10  C   UNL d   1      59.413   0.680  29.946  0.00  0.00     0.033 A 
ATOM     11  O   UNL d   1      56.493   0.682  30.573  0.00  0.00    -0.265 OA
ATOM     12 CL   UNL d   1      58.784   0.682  28.681  0.00  0.00    -0.060 Cl
ATOM     13  C   UNL d   1      56.375   0.681  32.225  0.00  0.00     0.006 A 
ATOM     14  C   UNL d   1      60.024   0.678  31.248  0.00  0.00     0.003 A 
ATOM     15  C   UNL d   1      60.144   0.680  29.605  0.00  0.00     0.003 A 
ATOM     16  C   UNL d   1      57.735   0.679  33.149  0.00  0.00     0.019 A 
ATOM     17  C   UNL d   1      56.309   0.680  33.045  0.00  0.00     0.000 A 
ATOM     18  C   UNL d   1      60.778   0.678  30.874  0.00  0.00     0.000 A 
ATOM     19  C   UNL d   1      60.826   0.679  30.069  0.00  0.00     0.000 A 
ATOM     20  C   UNL d   1      56.992   0.679  33.509  0.00  0.00     0.002 A 
ENDROOT
TORSDOF 0
ENDMDL
MODEL 7
REMARK VINA RESULT:      -3.2      1.974      3.847
REMARK  0 active torsions:
REMARK  status: ('A' for Active; 'I' for Inactive)
ROOT
ATOM      1  N   UNL d   1      58.457   0.676  31.886  0.00  0.00    -0.176 N 
ATOM      2  C   UNL d   1      57.664   0.673  31.658  0.00  0.00     0.167 A 
ATOM      3  N   UNL d   1      58.657   0.679  32.660  0.00  0.00    -0.150 NA
ATOM      4  C   UNL d   1      59.052   0.677  31.289  0.00  0.00     0.283 A 
ATOM      5  N   UNL d   1      57.473   0.670  30.834  0.00  0.00    -0.227 NA
ATOM      6  C   UNL d   1      58.063   0.678  33.252  0.00  0.00     0.159 A 
ATOM      7  C   UNL d   1      58.861   0.674  30.482  0.00  0.00     0.076 A 
ATOM      8  C   UNL d   1      57.077   0.672  32.205  0.00  0.00     0.038 A 
ATOM      9  C   UNL d   1      58.069   0.671  30.254  0.00  0.00     0.088 A 
ATOM     10  C   UNL d   1      57.270   0.675  33.023  0.00  0.00     0.033 A 
ATOM     11  O   UNL d   1      59.851   0.680  31.519  0.00  0.00    -0.265 OA
ATOM     12 CL   UNL d   1      58.262   0.681  34.030  0.00  0.00    -0.060 Cl
ATOM     13  C   UNL d   1      59.449   0.674  29.913  0.00  0.00     0.006 A 
ATOM     14  C   UNL d   1      56.285   0.669  31.976  0.00  0.00     0.003 A 
ATOM     15  C   UNL d   1      56.682   0.674  33.575  0.00  0.00     0.003 A 
ATOM     16  C   UNL d   1      57.869   0.668  29.458  0.00  0.00     0.019 A 
ATOM     17  C   UNL d   1      59.256   0.672  29.112  0.00  0.00     0.000 A 
ATOM     18  C   UNL d   1      55.685   0.669  32.566  0.00  0.00     0.000 A 
ATOM     19  C   UNL d   1      55.890   0.671  33.346  0.00  0.00     0.000 A 
ATOM     20  C   UNL d   1      58.463   0.669  28.884  0.00  0.00     0.002 A 
ENDROOT
TORSDOF 0
ENDMDL
MODEL 8
REMARK VINA RESULT:      -3.2      9.528      9.792
REMARK  0 active torsions:
REMARK  status: ('A' for Active; 'I' for Inactive)
ROOT
ATOM      1  N   UNL d   1      59.663  -9.794  32.440  0.00  0.00    -0.176 N 
ATOM      2  C   UNL d   1      58.848  -9.796  32.564  0.00  0.00     0.167 A 
ATOM      3  N   UNL d   1      59.962  -9.800  31.698  0.00  0.00    -0.150 NA
ATOM      4  C   UNL d   1      60.177  -9.787  33.109  0.00  0.00     0.283 A 
ATOM      5  N   UNL d   1      58.551  -9.791  33.356  0.00  0.00    -0.227 NA
ATOM      6  C   UNL d   1      59.450  -9.807  31.035  0.00  0.00     0.159 A 
ATOM      7  C   UNL d   1      59.883  -9.782  33.884  0.00  0.00     0.076 A 
ATOM      8  C   UNL d   1      58.337  -9.803  31.946  0.00  0.00     0.038 A 
ATOM      9  C   UNL d   1      59.067  -9.784  34.008  0.00  0.00     0.088 A 
ATOM     10  C   UNL d   1      58.634  -9.809  31.159  0.00  0.00     0.033 A 
ATOM     11  O   UNL d   1      60.998  -9.785  32.984  0.00  0.00    -0.265 OA
ATOM     12 CL   UNL d   1      59.748  -9.812  30.289  0.00  0.00    -0.060 Cl
ATOM     13  C   UNL d   1      60.392  -9.775  34.525  0.00  0.00     0.006 A 
ATOM     14  C   UNL d   1      57.521  -9.805  32.070  0.00  0.00     0.003 A 
ATOM     15  C   UNL d   1      58.122  -9.816  30.536  0.00  0.00     0.003 A 
ATOM     16  C   UNL d   1      58.767  -9.778  34.772  0.00  0.00     0.019 A 
ATOM     17  C   UNL d   1      60.097  -9.769  35.294  0.00  0.00     0.000 A 
ATOM     18  C   UNL d   1      57.003  -9.813  31.407  0.00  0.00     0.000 A 
ATOM     19  C   UNL d   1      57.307  -9.818  30.660  0.00  0.00     0.000 A 
ATOM     20  C   UNL d   1      59.282  -9.771  35.418  0.00  0.00     0.002 A 
ENDROOT
TORSDOF 0
ENDMDL
MODEL 9
REMARK VINA RESULT:      -3.2      3.210      4.303
REMARK  0 active torsions:
REMARK  status: ('A' for Active; 'I' for Inactive)
ROOT
ATOM      1  N   UNL d   1      59.158  -2.041  29.006  0.00  0.00    -0.176 N 
ATOM      2  C   UNL d   1      59.948  -2.278  29.008  0.00  0.00     0.167 A 
ATOM      3  N   UNL d   1      58.577  -2.560  28.826  0.00  0.00    -0.150 NA
ATOM      4  C   UNL d   1      58.973  -1.240  29.197  0.00  0.00     0.283 A 
ATOM      5  N   UNL d   1      60.547  -1.713  29.202  0.00  0.00    -0.227 NA
ATOM      6  C   UNL d   1      58.763  -3.355  28.636  0.00  0.00     0.159 A 
ATOM      7  C   UNL d   1      59.563  -0.689  29.386  0.00  0.00     0.076 A 
ATOM      8  C   UNL d   1      60.151  -3.033  28.830  0.00  0.00     0.038 A 
ATOM      9  C   UNL d   1      60.353  -0.927  29.388  0.00  0.00     0.088 A 
ATOM     10  C   UNL d   1      59.553  -3.592  28.639  0.00  0.00     0.033 A 
ATOM     11  O   UNL d   1      58.177  -1.000  29.195  0.00  0.00    -0.265 OA
ATOM     12 CL   UNL d   1      58.181  -3.878  28.455  0.00  0.00    -0.060 Cl
ATOM     13  C   UNL d   1      59.370   0.085  29.570  0.00  0.00     0.006 A 
ATOM     14  C   UNL d   1      60.941  -3.271  28.833  0.00  0.00     0.003 A 
ATOM     15  C   UNL d   1      59.756  -4.352  28.459  0.00  0.00     0.003 A 
ATOM     16  C   UNL d   1      60.945  -0.389  29.574  0.00  0.00     0.019 A 
ATOM     17  C   UNL d   1      59.959   0.629  29.757  0.00  0.00     0.000 A 
ATOM     18  C   UNL d   1      61.133  -4.068  28.643  0.00  0.00     0.000 A 
ATOM     19  C   UNL d   1      60.546  -4.590  28.462  0.00  0.00     0.000 A 
ATOM     20  C   UNL d   1      60.749   0.392  29.759  0.00  0.00     0.002 A 
ENDROOT
TORSDOF 0
ENDMDL
