MODEL 1
REMARK VINA RESULT:      -3.5      0.000      0.000
REMARK  3 active torsions:
REMARK  status: ('A' for Active; 'I' for Inactive)
REMARK    1  A    between atoms: C_2  and  C_4 
REMARK    2  A    between atoms: N_3  and  C_2 
REMARK    3  A    between atoms: C_5  and  N_3 
ROOT
ATOM      1  N   UNL d   1      30.241  16.949 -24.166  0.00  0.00    -0.243 NA
ATOM      2  C   UNL d   1      30.990  16.606 -24.021  0.00  0.00     0.109 A 
ATOM      3  C   UNL d   1      29.557  16.567 -23.910  0.00  0.00     0.081 A 
ATOM      4  C   UNL d   1      31.041  15.886 -23.622  0.00  0.00     0.021 A 
ATOM      5  C   UNL d   1      29.615  15.841 -23.507  0.00  0.00     0.018 A 
ATOM      6  C   UNL d   1      30.355  15.501 -23.363  0.00  0.00     0.003 A 
ATOM      7  C   UNL d   1      28.817  16.899 -24.049  0.00  0.00     0.019 A 
ATOM      8  C   UNL d   1      28.932  15.462 -23.252  0.00  0.00     0.002 A 
ATOM      9  C   UNL d   1      28.142  16.517 -23.792  0.00  0.00     0.002 A 
ATOM     10  C   UNL d   1      28.199  15.798 -23.394  0.00  0.00     0.000 A 
ENDROOT
BRANCH   2  11
ATOM     11  C   UNL d   1      31.676  16.991 -24.280  0.00  0.00     0.153 C 
ATOM     12  S   UNL d   1      31.927  16.910 -25.063  0.00  0.00    -0.056 SA
BRANCH  11  13
ATOM     13  N   UNL d   1      32.107  17.456 -23.754  0.00  0.00    -0.233 NA
BRANCH  13  14
ATOM     14  C   UNL d   1      32.484  18.139 -24.022  0.00  0.00     0.082 A 
ATOM     15  C   UNL d   1      32.861  18.644 -23.480  0.00  0.00     0.018 A 
ATOM     16  C   UNL d   1      32.858  18.465 -22.679  0.00  0.00     0.002 C 
ATOM     17  C   UNL d   1      33.236  19.325 -23.756  0.00  0.00     0.002 A 
ATOM     18  C   UNL d   1      33.240  19.507 -24.561  0.00  0.00     0.000 A 
ATOM     19  C   UNL d   1      32.865  19.001 -25.097  0.00  0.00     0.002 A 
ATOM     20  C   UNL d   1      32.486  18.316 -24.826  0.00  0.00     0.019 A 
ENDBRANCH  13  14
ENDBRANCH  11  13
ENDBRANCH   2  11
TORSDOF 3
ENDMDL
MODEL 2
REMARK VINA RESULT:      -3.0      0.650      4.196
REMARK  3 active torsions:
REMARK  status: ('A' for Active; 'I' for Inactive)
REMARK    1  A    between atoms: C_2  and  C_4 
REMARK    2  A    between atoms: N_3  and  C_2 
REMARK    3  A    between atoms: C_5  and  N_3 
ROOT
ATOM      1  N   UNL d   1      31.834  17.744 -23.478  0.00  0.00    -0.243 NA
ATOM      2  C   UNL d   1      31.727  17.273 -24.161  0.00  0.00     0.109 A 
ATOM      3  C   UNL d   1      32.303  18.421 -23.516  0.00  0.00     0.081 A 
ATOM      4  C   UNL d   1      32.091  17.487 -24.869  0.00  0.00     0.021 A 
ATOM      5  C   UNL d   1      32.669  18.633 -24.233  0.00  0.00     0.018 A 
ATOM      6  C   UNL d   1      32.563  18.167 -24.908  0.00  0.00     0.003 A 
ATOM      7  C   UNL d   1      32.413  18.890 -22.848  0.00  0.00     0.019 A 
ATOM      8  C   UNL d   1      33.136  19.308 -24.268  0.00  0.00     0.002 A 
ATOM      9  C   UNL d   1      32.880  19.560 -22.890  0.00  0.00     0.002 A 
ATOM     10  C   UNL d   1      33.241  19.769 -23.599  0.00  0.00     0.000 A 
ENDROOT
BRANCH   2  11
ATOM     11  C   UNL d   1      31.255  16.594 -24.121  0.00  0.00     0.153 C 
ATOM     12  S   UNL d   1      31.565  15.891 -23.816  0.00  0.00    -0.056 SA
BRANCH  11  13
ATOM     13  N   UNL d   1      30.475  16.621 -24.387  0.00  0.00    -0.233 NA
BRANCH  13  14
ATOM     14  C   UNL d   1      29.873  16.292 -23.930  0.00  0.00     0.082 A 
ATOM     15  C   UNL d   1      29.080  16.473 -24.097  0.00  0.00     0.018 A 
ATOM     16  C   UNL d   1      28.895  16.979 -24.717  0.00  0.00     0.002 C 
ATOM     17  C   UNL d   1      28.483  16.140 -23.636  0.00  0.00     0.002 A 
ATOM     18  C   UNL d   1      28.667  15.631 -23.013  0.00  0.00     0.000 A 
ATOM     19  C   UNL d   1      29.458  15.453 -22.849  0.00  0.00     0.002 A 
ATOM     20  C   UNL d   1      30.062  15.785 -23.309  0.00  0.00     0.019 A 
ENDBRANCH  13  14
ENDBRANCH  11  13
ENDBRANCH   2  11
TORSDOF 3
ENDMDL
MODEL 3
REMARK VINA RESULT:      -2.9      3.170      4.527
REMARK  3 active torsions:
REMARK  status: ('A' for Active; 'I' for Inactive)
REMARK    1  A    between atoms: C_2  and  C_4 
REMARK    2  A    between atoms: N_3  and  C_2 
REMARK    3  A    between atoms: C_5  and  N_3 
ROOT
ATOM      1  N   UNL d   1      33.034  19.673 -23.217  0.00  0.00    -0.243 NA
ATOM      2  C   UNL d   1      33.149  19.566 -22.396  0.00  0.00     0.109 A 
ATOM      3  C   UNL d   1      33.010  19.018 -23.718  0.00  0.00     0.081 A 
ATOM      4  C   UNL d   1      33.237  18.805 -22.089  0.00  0.00     0.021 A 
ATOM      5  C   UNL d   1      33.100  18.252 -23.403  0.00  0.00     0.018 A 
ATOM      6  C   UNL d   1      33.213  18.146 -22.591  0.00  0.00     0.003 A 
ATOM      7  C   UNL d   1      32.897  19.116 -24.527  0.00  0.00     0.019 A 
ATOM      8  C   UNL d   1      33.075  17.602 -23.904  0.00  0.00     0.002 A 
ATOM      9  C   UNL d   1      32.874  18.464 -25.020  0.00  0.00     0.002 A 
ATOM     10  C   UNL d   1      32.962  17.707 -24.708  0.00  0.00     0.000 A 
ENDROOT
BRANCH   2  11
ATOM     11  C   UNL d   1      33.173  20.225 -21.895  0.00  0.00     0.153 C 
ATOM     12  S   UNL d   1      33.241  20.122 -21.078  0.00  0.00    -0.056 SA
BRANCH  11  13
ATOM     13  N   UNL d   1      33.130  20.983 -22.214  0.00  0.00    -0.233 NA
BRANCH  13  14
ATOM     14  C   UNL d   1      32.812  21.599 -21.768  0.00  0.00     0.082 A 
ATOM     15  C   UNL d   1      32.868  22.381 -22.043  0.00  0.00     0.018 A 
ATOM     16  C   UNL d   1      33.238  22.541 -22.758  0.00  0.00     0.002 C 
ATOM     17  C   UNL d   1      32.548  22.993 -21.591  0.00  0.00     0.002 A 
ATOM     18  C   UNL d   1      32.175  22.834 -20.872  0.00  0.00     0.000 A 
ATOM     19  C   UNL d   1      32.122  22.055 -20.601  0.00  0.00     0.002 A 
ATOM     20  C   UNL d   1      32.442  21.436 -21.051  0.00  0.00     0.019 A 
ENDBRANCH  13  14
ENDBRANCH  11  13
ENDBRANCH   2  11
TORSDOF 3
ENDMDL
MODEL 4
REMARK VINA RESULT:      -2.6      2.296      4.835
REMARK  3 active torsions:
REMARK  status: ('A' for Active; 'I' for Inactive)
REMARK    1  A    between atoms: C_2  and  C_4 
REMARK    2  A    between atoms: N_3  and  C_2 
REMARK    3  A    between atoms: C_5  and  N_3 
ROOT
ATOM      1  N   UNL d   1      32.605  20.088 -21.917  0.00  0.00    -0.243 NA
ATOM      2  C   UNL d   1      32.936  19.899 -22.661  0.00  0.00     0.109 A 
ATOM      3  C   UNL d   1      32.586  20.873 -21.663  0.00  0.00     0.081 A 
ATOM      4  C   UNL d   1      33.241  20.498 -23.139  0.00  0.00     0.021 A 
ATOM      5  C   UNL d   1      32.895  21.473 -22.150  0.00  0.00     0.018 A 
ATOM      6  C   UNL d   1      33.222  21.286 -22.886  0.00  0.00     0.003 A 
ATOM      7  C   UNL d   1      32.262  21.067 -20.932  0.00  0.00     0.019 A 
ATOM      8  C   UNL d   1      32.875  22.254 -21.895  0.00  0.00     0.002 A 
ATOM      9  C   UNL d   1      32.245  21.845 -20.684  0.00  0.00     0.002 A 
ATOM     10  C   UNL d   1      32.551  22.439 -21.165  0.00  0.00     0.000 A 
ENDROOT
BRANCH   2  11
ATOM     11  C   UNL d   1      32.954  19.111 -22.914  0.00  0.00     0.153 C 
ATOM     12  S   UNL d   1      33.241  18.520 -22.411  0.00  0.00    -0.056 SA
BRANCH  11  13
ATOM     13  N   UNL d   1      32.686  18.917 -23.669  0.00  0.00    -0.233 NA
BRANCH  13  14
ATOM     14  C   UNL d   1      32.407  18.157 -23.823  0.00  0.00     0.082 A 
ATOM     15  C   UNL d   1      32.008  17.998 -24.535  0.00  0.00     0.018 A 
ATOM     16  C   UNL d   1      31.892  18.597 -25.084  0.00  0.00     0.002 C 
ATOM     17  C   UNL d   1      31.732  17.235 -24.682  0.00  0.00     0.002 A 
ATOM     18  C   UNL d   1      31.847  16.632 -24.132  0.00  0.00     0.000 A 
ATOM     19  C   UNL d   1      32.245  16.793 -23.425  0.00  0.00     0.002 A 
ATOM     20  C   UNL d   1      32.525  17.557 -23.270  0.00  0.00     0.019 A 
ENDBRANCH  13  14
ENDBRANCH  11  13
ENDBRANCH   2  11
TORSDOF 3
ENDMDL
MODEL 5
REMARK VINA RESULT:      -2.5      1.826      2.743
REMARK  3 active torsions:
REMARK  status: ('A' for Active; 'I' for Inactive)
REMARK    1  A    between atoms: C_2  and  C_4 
REMARK    2  A    between atoms: N_3  and  C_2 
REMARK    3  A    between atoms: C_5  and  N_3 
ROOT
ATOM      1  N   UNL d   1      31.798  18.476 -23.833  0.00  0.00    -0.243 NA
ATOM      2  C   UNL d   1      32.549  18.495 -23.467  0.00  0.00     0.109 A 
ATOM      3  C   UNL d   1      31.436  17.752 -23.994  0.00  0.00     0.081 A 
ATOM      4  C   UNL d   1      32.926  17.789 -23.267  0.00  0.00     0.021 A 
ATOM      5  C   UNL d   1      31.822  17.043 -23.790  0.00  0.00     0.018 A 
ATOM      6  C   UNL d   1      32.565  17.062 -23.427  0.00  0.00     0.003 A 
ATOM      7  C   UNL d   1      30.697  17.726 -24.354  0.00  0.00     0.019 A 
ATOM      8  C   UNL d   1      31.460  16.323 -23.950  0.00  0.00     0.002 A 
ATOM      9  C   UNL d   1      30.343  17.006 -24.511  0.00  0.00     0.002 A 
ATOM     10  C   UNL d   1      30.724  16.305 -24.309  0.00  0.00     0.000 A 
ENDROOT
BRANCH   2  11
ATOM     11  C   UNL d   1      32.910  19.223 -23.307  0.00  0.00     0.153 C 
ATOM     12  S   UNL d   1      33.241  19.666 -23.921  0.00  0.00    -0.056 SA
BRANCH  11  13
ATOM     13  N   UNL d   1      32.938  19.504 -22.533  0.00  0.00    -0.233 NA
BRANCH  13  14
ATOM     14  C   UNL d   1      33.035  20.310 -22.391  0.00  0.00     0.082 A 
ATOM     15  C   UNL d   1      33.021  20.599 -21.612  0.00  0.00     0.018 A 
ATOM     16  C   UNL d   1      32.912  20.083 -20.983  0.00  0.00     0.002 C 
ATOM     17  C   UNL d   1      33.118  21.407 -21.479  0.00  0.00     0.002 A 
ATOM     18  C   UNL d   1      33.228  21.928 -22.109  0.00  0.00     0.000 A 
ATOM     19  C   UNL d   1      33.241  21.637 -22.883  0.00  0.00     0.002 A 
ATOM     20  C   UNL d   1      33.144  20.826 -23.024  0.00  0.00     0.019 A 
ENDBRANCH  13  14
ENDBRANCH  11  13
ENDBRANCH   2  11
TORSDOF 3
ENDMDL
MODEL 6
REMARK VINA RESULT:      -1.6      4.248      6.474
REMARK  3 active torsions:
REMARK  status: ('A' for Active; 'I' for Inactive)
REMARK    1  A    between atoms: C_2  and  C_4 
REMARK    2  A    between atoms: N_3  and  C_2 
REMARK    3  A    between atoms: C_5  and  N_3 
ROOT
ATOM      1  N   UNL d   1      33.179  21.969 -20.538  0.00  0.00    -0.243 NA
ATOM      2  C   UNL d   1      33.035  22.291 -21.296  0.00  0.00     0.109 A 
ATOM      3  C   UNL d   1      33.072  22.435 -19.866  0.00  0.00     0.081 A 
ATOM      4  C   UNL d   1      32.786  23.073 -21.370  0.00  0.00     0.021 A 
ATOM      5  C   UNL d   1      32.820  23.225 -19.946  0.00  0.00     0.018 A 
ATOM      6  C   UNL d   1      32.678  23.543 -20.696  0.00  0.00     0.003 A 
ATOM      7  C   UNL d   1      33.212  22.125 -19.117  0.00  0.00     0.019 A 
ATOM      8  C   UNL d   1      32.714  23.687 -19.275  0.00  0.00     0.002 A 
ATOM      9  C   UNL d   1      33.104  22.591 -18.454  0.00  0.00     0.002 A 
ATOM     10  C   UNL d   1      32.856  23.372 -18.533  0.00  0.00     0.000 A 
ENDROOT
BRANCH   2  11
ATOM     11  C   UNL d   1      33.143  21.821 -21.969  0.00  0.00     0.153 C 
ATOM     12  S   UNL d   1      33.227  22.174 -22.712  0.00  0.00    -0.056 SA
BRANCH  11  13
ATOM     13  N   UNL d   1      33.166  21.000 -21.896  0.00  0.00    -0.233 NA
BRANCH  13  14
ATOM     14  C   UNL d   1      33.169  20.527 -22.572  0.00  0.00     0.082 A 
ATOM     15  C   UNL d   1      33.103  19.702 -22.500  0.00  0.00     0.018 A 
ATOM     16  C   UNL d   1      33.036  19.357 -21.758  0.00  0.00     0.002 C 
ATOM     17  C   UNL d   1      33.106  19.236 -23.180  0.00  0.00     0.002 A 
ATOM     18  C   UNL d   1      33.174  19.580 -23.927  0.00  0.00     0.000 A 
ATOM     19  C   UNL d   1      33.239  20.402 -23.995  0.00  0.00     0.002 A 
ATOM     20  C   UNL d   1      33.236  20.876 -23.315  0.00  0.00     0.019 A 
ENDBRANCH  13  14
ENDBRANCH  11  13
ENDBRANCH   2  11
TORSDOF 3
ENDMDL
MODEL 7
REMARK VINA RESULT:      -0.7      1.533      4.407
REMARK  3 active torsions:
REMARK  status: ('A' for Active; 'I' for Inactive)
REMARK    1  A    between atoms: C_2  and  C_4 
REMARK    2  A    between atoms: N_3  and  C_2 
REMARK    3  A    between atoms: C_5  and  N_3 
ROOT
ATOM      1  N   UNL d   1      32.717  19.020 -22.415  0.00  0.00    -0.243 NA
ATOM      2  C   UNL d   1      32.820  18.953 -23.242  0.00  0.00     0.109 A 
ATOM      3  C   UNL d   1      32.857  19.741 -22.040  0.00  0.00     0.081 A 
ATOM      4  C   UNL d   1      33.063  19.608 -23.680  0.00  0.00     0.021 A 
ATOM      5  C   UNL d   1      33.101  20.400 -22.488  0.00  0.00     0.018 A 
ATOM      6  C   UNL d   1      33.204  20.333 -23.306  0.00  0.00     0.003 A 
ATOM      7  C   UNL d   1      32.757  19.815 -21.227  0.00  0.00     0.019 A 
ATOM      8  C   UNL d   1      33.240  21.117 -22.112  0.00  0.00     0.002 A 
ATOM      9  C   UNL d   1      32.897  20.532 -20.860  0.00  0.00     0.002 A 
ATOM     10  C   UNL d   1      33.138  21.183 -21.302  0.00  0.00     0.000 A 
ENDROOT
BRANCH   2  11
ATOM     11  C   UNL d   1      32.679  18.228 -23.616  0.00  0.00     0.153 C 
ATOM     12  S   UNL d   1      32.927  18.108 -24.396  0.00  0.00    -0.056 SA
BRANCH  11  13
ATOM     13  N   UNL d   1      32.291  17.626 -23.209  0.00  0.00    -0.233 NA
BRANCH  13  14
ATOM     14  C   UNL d   1      31.616  17.280 -23.532  0.00  0.00     0.082 A 
ATOM     15  C   UNL d   1      31.581  16.456 -23.634  0.00  0.00     0.018 A 
ATOM     16  C   UNL d   1      32.218  15.986 -23.414  0.00  0.00     0.002 C 
ATOM     17  C   UNL d   1      30.903  16.117 -23.958  0.00  0.00     0.002 A 
ATOM     18  C   UNL d   1      30.262  16.587 -24.181  0.00  0.00     0.000 A 
ATOM     19  C   UNL d   1      30.300  17.407 -24.078  0.00  0.00     0.002 A 
ATOM     20  C   UNL d   1      30.979  17.753 -23.753  0.00  0.00     0.019 A 
ENDBRANCH  13  14
ENDBRANCH  11  13
ENDBRANCH   2  11
TORSDOF 3
ENDMDL
