MODEL 1
REMARK VINA RESULT:      -7.4      0.000      0.000
REMARK  7 active torsions:
REMARK  status: ('A' for Active; 'I' for Inactive)
REMARK    1  A    between atoms: C_3  and  C_1 
REMARK    2  A    between atoms: C_9  and  N_2 
REMARK    3  A    between atoms: C_6  and  C_3 
REMARK    4  A    between atoms: C_8  and  C_3 
REMARK       I    between atoms: N_11  and  C_6 
REMARK    5  A    between atoms: C_26  and  C_7 
REMARK    6  A    between atoms: C_21  and  N_11 
REMARK    7  A    between atoms: C_12  and  C_21 
ROOT
ATOM      1  C   UNL d   1      53.414  33.832  53.923  0.00  0.00     0.103 A 
ATOM      2  N   UNL d   1      52.701  34.048  53.576  0.00  0.00    -0.269 N 
ATOM      3  S   UNL d   1      53.610  34.404  54.485  0.00  0.00    -0.064 SA
ATOM      4  C   UNL d   1      52.449  34.756  53.920  0.00  0.00     0.271 A 
ATOM      5  C   UNL d   1      53.014  34.973  54.482  0.00  0.00     0.087 A 
ATOM      6  O   UNL d   1      51.761  35.166  53.735  0.00  0.00    -0.266 OA
ENDROOT
BRANCH   1   7
ATOM      7  C   UNL d   1      53.861  33.159  53.743  0.00  0.00     0.101 C 
BRANCH   7   8
ATOM      8  C   UNL d   1      53.766  32.467  54.185  0.00  0.00     0.283 C 
ATOM      9  N   UNL d   1      53.545  31.771  53.816  0.00  0.00    -0.204 NA
ATOM     10  O   UNL d   1      53.894  32.482  55.002  0.00  0.00    -0.265 OA
BRANCH   9  11
ATOM     11  C   UNL d   1      53.450  31.079  54.256  0.00  0.00     0.127 C 
BRANCH  11  12
ATOM     12  C   UNL d   1      53.168  30.391  53.904  0.00  0.00     0.119 A 
ATOM     13  O   UNL d   1      52.667  30.339  53.255  0.00  0.00    -0.304 OA
ATOM     14  C   UNL d   1      52.532  29.541  53.095  0.00  0.00     0.123 A 
ATOM     15  C   UNL d   1      52.951  29.099  53.646  0.00  0.00     0.029 A 
ATOM     16  C   UNL d   1      53.345  29.620  54.146  0.00  0.00     0.028 A 
ENDBRANCH  11  12
ENDBRANCH   9  11
ENDBRANCH   7   8
BRANCH   7  17
ATOM     17  C   UNL d   1      54.407  33.179  53.117  0.00  0.00     0.129 C 
ATOM     18  N   UNL d   1      55.207  33.075  53.277  0.00  0.00    -0.146 N 
ENDBRANCH   7  17
ENDBRANCH   1   7
BRANCH   2  19
ATOM     19  C   UNL d   1      52.034  34.033  53.091  0.00  0.00     0.067 A 
ATOM     20  C   UNL d   1      51.328  33.737  53.373  0.00  0.00     0.018 A 
ATOM     21  C   UNL d   1      50.665  33.722  52.892  0.00  0.00     0.008 A 
ATOM     22  C   UNL d   1      50.713  34.008  52.116  0.00  0.00     0.035 A 
ATOM     23  C   UNL d   1      51.427  34.307  51.834  0.00  0.00     0.008 A 
ATOM     24 BR   UNL d   1      50.053  33.996  51.628  0.00  0.00    -0.049 Br
ATOM     25  C   UNL d   1      52.088  34.320  52.319  0.00  0.00     0.018 A 
ENDBRANCH   2  19
BRANCH   5  26
ATOM     26  C   UNL d   1      52.980  35.647  54.957  0.00  0.00     0.011 C 
ATOM     27  C   UNL d   1      53.578  36.215  54.904  0.00  0.00     0.001 C 
ENDBRANCH   5  26
TORSDOF 7
ENDMDL
MODEL 2
REMARK VINA RESULT:      -6.5      1.672      3.897
REMARK  7 active torsions:
REMARK  status: ('A' for Active; 'I' for Inactive)
REMARK    1  A    between atoms: C_3  and  C_1 
REMARK    2  A    between atoms: C_9  and  N_2 
REMARK    3  A    between atoms: C_6  and  C_3 
REMARK    4  A    between atoms: C_8  and  C_3 
REMARK       I    between atoms: N_11  and  C_6 
REMARK    5  A    between atoms: C_26  and  C_7 
REMARK    6  A    between atoms: C_21  and  N_11 
REMARK    7  A    between atoms: C_12  and  C_21 
ROOT
ATOM      1  C   UNL d   1      53.093  33.587  53.736  0.00  0.00     0.103 A 
ATOM      2  N   UNL d   1      53.163  32.769  53.705  0.00  0.00    -0.269 N 
ATOM      3  S   UNL d   1      53.549  33.859  54.368  0.00  0.00    -0.064 SA
ATOM      4  C   UNL d   1      53.663  32.527  54.316  0.00  0.00     0.271 A 
ATOM      5  C   UNL d   1      53.900  33.205  54.724  0.00  0.00     0.087 A 
ATOM      6  O   UNL d   1      53.882  31.753  54.485  0.00  0.00    -0.266 OA
ENDROOT
BRANCH   1   7
ATOM      7  C   UNL d   1      52.644  34.059  53.225  0.00  0.00     0.101 C 
BRANCH   7   8
ATOM      8  C   UNL d   1      51.897  34.327  53.457  0.00  0.00     0.283 C 
ATOM      9  N   UNL d   1      51.257  34.246  52.954  0.00  0.00    -0.204 NA
ATOM     10  O   UNL d   1      51.799  34.677  54.200  0.00  0.00    -0.265 OA
BRANCH   9  11
ATOM     11  C   UNL d   1      50.510  34.513  53.184  0.00  0.00     0.127 C 
BRANCH  11  12
ATOM     12  C   UNL d   1      49.901  34.585  52.636  0.00  0.00     0.119 A 
ATOM     13  O   UNL d   1      49.847  34.210  51.907  0.00  0.00    -0.304 OA
ATOM     14  C   UNL d   1      49.144  34.445  51.546  0.00  0.00     0.123 A 
ATOM     15  C   UNL d   1      48.762  34.966  52.053  0.00  0.00     0.029 A 
ATOM     16  C   UNL d   1      49.226  35.054  52.726  0.00  0.00     0.028 A 
ENDBRANCH  11  12
ENDBRANCH   9  11
ENDBRANCH   7   8
BRANCH   7  17
ATOM     17  C   UNL d   1      52.945  34.265  52.480  0.00  0.00     0.129 C 
ATOM     18  N   UNL d   1      53.201  35.035  52.347  0.00  0.00    -0.146 N 
ENDBRANCH   7  17
ENDBRANCH   1   7
BRANCH   2  19
ATOM     19  C   UNL d   1      53.065  31.987  53.461  0.00  0.00     0.067 A 
ATOM     20  C   UNL d   1      53.633  31.627  52.998  0.00  0.00     0.018 A 
ATOM     21  C   UNL d   1      53.536  30.850  52.756  0.00  0.00     0.008 A 
ATOM     22  C   UNL d   1      52.859  30.430  52.982  0.00  0.00     0.035 A 
ATOM     23  C   UNL d   1      52.287  30.796  53.448  0.00  0.00     0.008 A 
ATOM     24 BR   UNL d   1      52.754  29.651  52.742  0.00  0.00    -0.049 Br
ATOM     25  C   UNL d   1      52.388  31.573  53.689  0.00  0.00     0.018 A 
ENDBRANCH   2  19
BRANCH   5  26
ATOM     26  C   UNL d   1      54.403  33.216  55.378  0.00  0.00     0.011 C 
ATOM     27  C   UNL d   1      54.976  33.809  55.444  0.00  0.00     0.001 C 
ENDBRANCH   5  26
TORSDOF 7
ENDMDL
MODEL 3
REMARK VINA RESULT:      -6.1      2.074      4.548
REMARK  7 active torsions:
REMARK  status: ('A' for Active; 'I' for Inactive)
REMARK    1  A    between atoms: C_3  and  C_1 
REMARK    2  A    between atoms: C_9  and  N_2 
REMARK    3  A    between atoms: C_6  and  C_3 
REMARK    4  A    between atoms: C_8  and  C_3 
REMARK       I    between atoms: N_11  and  C_6 
REMARK    5  A    between atoms: C_26  and  C_7 
REMARK    6  A    between atoms: C_21  and  N_11 
REMARK    7  A    between atoms: C_12  and  C_21 
ROOT
ATOM      1  C   UNL d   1      52.463  33.015  53.004  0.00  0.00     0.103 A 
ATOM      2  N   UNL d   1      53.106  32.953  53.511  0.00  0.00    -0.269 N 
ATOM      3  S   UNL d   1      52.267  32.257  52.744  0.00  0.00    -0.064 SA
ATOM      4  C   UNL d   1      53.315  32.156  53.571  0.00  0.00     0.271 A 
ATOM      5  C   UNL d   1      52.793  31.729  53.094  0.00  0.00     0.087 A 
ATOM      6  O   UNL d   1      53.929  31.849  54.022  0.00  0.00    -0.266 OA
ENDROOT
BRANCH   1   7
ATOM      7  C   UNL d   1      52.076  33.715  52.788  0.00  0.00     0.101 C 
BRANCH   7   8
ATOM      8  C   UNL d   1      51.285  33.833  52.999  0.00  0.00     0.283 C 
ATOM      9  N   UNL d   1      50.737  34.054  52.432  0.00  0.00    -0.204 NA
ATOM     10  O   UNL d   1      51.050  33.727  53.785  0.00  0.00    -0.265 OA
BRANCH   9  11
ATOM     11  C   UNL d   1      49.947  34.172  52.642  0.00  0.00     0.127 C 
BRANCH  11  12
ATOM     12  C   UNL d   1      49.403  34.449  52.091  0.00  0.00     0.119 A 
ATOM     13  O   UNL d   1      49.355  34.243  51.298  0.00  0.00    -0.304 OA
ATOM     14  C   UNL d   1      48.726  34.655  50.959  0.00  0.00     0.123 A 
ATOM     15  C   UNL d   1      48.384  35.118  51.545  0.00  0.00     0.029 A 
ATOM     16  C   UNL d   1      48.799  34.994  52.245  0.00  0.00     0.028 A 
ENDBRANCH  11  12
ENDBRANCH   9  11
ENDBRANCH   7   8
BRANCH   7  17
ATOM     17  C   UNL d   1      52.482  34.298  52.360  0.00  0.00     0.129 C 
ATOM     18  N   UNL d   1      52.406  35.086  52.581  0.00  0.00    -0.146 N 
ENDBRANCH   7  17
ENDBRANCH   1   7
BRANCH   2  19
ATOM     19  C   UNL d   1      53.714  33.162  54.028  0.00  0.00     0.067 A 
ATOM     20  C   UNL d   1      54.474  33.265  53.748  0.00  0.00     0.018 A 
ATOM     21  C   UNL d   1      55.078  33.472  54.260  0.00  0.00     0.008 A 
ATOM     22  C   UNL d   1      54.917  33.578  55.066  0.00  0.00     0.035 A 
ATOM     23  C   UNL d   1      54.149  33.474  55.346  0.00  0.00     0.008 A 
ATOM     24 BR   UNL d   1      55.517  33.786  55.586  0.00  0.00    -0.049 Br
ATOM     25  C   UNL d   1      53.547  33.267  54.829  0.00  0.00     0.018 A 
ENDBRANCH   2  19
BRANCH   5  26
ATOM     26  C   UNL d   1      52.804  30.909  52.991  0.00  0.00     0.011 C 
ATOM     27  C   UNL d   1      52.098  30.482  53.040  0.00  0.00     0.001 C 
ENDBRANCH   5  26
TORSDOF 7
ENDMDL
MODEL 4
REMARK VINA RESULT:      -5.7      1.933      3.021
REMARK  7 active torsions:
REMARK  status: ('A' for Active; 'I' for Inactive)
REMARK    1  A    between atoms: C_3  and  C_1 
REMARK    2  A    between atoms: C_9  and  N_2 
REMARK    3  A    between atoms: C_6  and  C_3 
REMARK    4  A    between atoms: C_8  and  C_3 
REMARK       I    between atoms: N_11  and  C_6 
REMARK    5  A    between atoms: C_26  and  C_7 
REMARK    6  A    between atoms: C_21  and  N_11 
REMARK    7  A    between atoms: C_12  and  C_21 
ROOT
ATOM      1  C   UNL d   1      52.538  32.167  53.136  0.00  0.00     0.103 A 
ATOM      2  N   UNL d   1      53.002  32.678  53.582  0.00  0.00    -0.269 N 
ATOM      3  S   UNL d   1      51.855  32.572  52.912  0.00  0.00    -0.064 SA
ATOM      4  C   UNL d   1      52.611  33.403  53.639  0.00  0.00     0.271 A 
ATOM      5  C   UNL d   1      51.901  33.333  53.222  0.00  0.00     0.087 A 
ATOM      6  O   UNL d   1      52.880  34.069  54.037  0.00  0.00    -0.266 OA
ENDROOT
BRANCH   1   7
ATOM      7  C   UNL d   1      52.721  31.383  52.942  0.00  0.00     0.101 C 
BRANCH   7   8
ATOM      8  C   UNL d   1      52.375  30.761  53.363  0.00  0.00     0.283 C 
ATOM      9  N   UNL d   1      52.845  30.234  53.777  0.00  0.00    -0.204 NA
ATOM     10  O   UNL d   1      51.553  30.673  53.363  0.00  0.00    -0.265 OA
BRANCH   9  11
ATOM     11  C   UNL d   1      52.501  29.612  54.197  0.00  0.00     0.127 C 
BRANCH  11  12
ATOM     12  C   UNL d   1      52.964  29.095  54.638  0.00  0.00     0.119 A 
ATOM     13  O   UNL d   1      53.306  28.395  54.378  0.00  0.00    -0.304 OA
ATOM     14  C   UNL d   1      53.721  28.059  55.006  0.00  0.00     0.123 A 
ATOM     15  C   UNL d   1      53.636  28.553  55.657  0.00  0.00     0.029 A 
ATOM     16  C   UNL d   1      53.170  29.193  55.434  0.00  0.00     0.028 A 
ENDBRANCH  11  12
ENDBRANCH   9  11
ENDBRANCH   7   8
BRANCH   7  17
ATOM     17  C   UNL d   1      53.251  31.222  52.324  0.00  0.00     0.129 C 
ATOM     18  N   UNL d   1      53.109  30.582  51.828  0.00  0.00    -0.146 N 
ENDBRANCH   7  17
ENDBRANCH   1   7
BRANCH   2  19
ATOM     19  C   UNL d   1      53.628  32.968  54.035  0.00  0.00     0.067 A 
ATOM     20  C   UNL d   1      53.582  32.963  54.850  0.00  0.00     0.018 A 
ATOM     21  C   UNL d   1      54.202  33.251  55.300  0.00  0.00     0.008 A 
ATOM     22  C   UNL d   1      54.879  33.548  54.926  0.00  0.00     0.035 A 
ATOM     23  C   UNL d   1      54.923  33.551  54.103  0.00  0.00     0.008 A 
ATOM     24 BR   UNL d   1      55.506  33.838  55.370  0.00  0.00    -0.049 Br
ATOM     25  C   UNL d   1      54.299  33.262  53.657  0.00  0.00     0.018 A 
ENDBRANCH   2  19
BRANCH   5  26
ATOM     26  C   UNL d   1      51.338  33.931  53.137  0.00  0.00     0.011 C 
ATOM     27  C   UNL d   1      50.890  33.975  52.443  0.00  0.00     0.001 C 
ENDBRANCH   5  26
TORSDOF 7
ENDMDL
MODEL 5
REMARK VINA RESULT:      -4.7      1.175      3.596
REMARK  7 active torsions:
REMARK  status: ('A' for Active; 'I' for Inactive)
REMARK    1  A    between atoms: C_3  and  C_1 
REMARK    2  A    between atoms: C_9  and  N_2 
REMARK    3  A    between atoms: C_6  and  C_3 
REMARK    4  A    between atoms: C_8  and  C_3 
REMARK       I    between atoms: N_11  and  C_6 
REMARK    5  A    between atoms: C_26  and  C_7 
REMARK    6  A    between atoms: C_21  and  N_11 
REMARK    7  A    between atoms: C_12  and  C_21 
ROOT
ATOM      1  C   UNL d   1      53.498  32.193  53.428  0.00  0.00     0.103 A 
ATOM      2  N   UNL d   1      52.742  32.413  53.194  0.00  0.00    -0.269 N 
ATOM      3  S   UNL d   1      53.530  31.369  53.451  0.00  0.00    -0.064 SA
ATOM      4  C   UNL d   1      52.298  31.727  53.069  0.00  0.00     0.271 A 
ATOM      5  C   UNL d   1      52.790  31.083  53.229  0.00  0.00     0.087 A 
ATOM      6  O   UNL d   1      51.513  31.695  52.829  0.00  0.00    -0.266 OA
ENDROOT
BRANCH   1   7
ATOM      7  C   UNL d   1      54.121  32.706  53.611  0.00  0.00     0.101 C 
BRANCH   7   8
ATOM      8  C   UNL d   1      54.108  33.141  54.315  0.00  0.00     0.283 C 
ATOM      9  N   UNL d   1      54.011  33.953  54.294  0.00  0.00    -0.204 NA
ATOM     10  O   UNL d   1      54.193  32.751  55.039  0.00  0.00    -0.265 OA
BRANCH   9  11
ATOM     11  C   UNL d   1      53.998  34.388  54.996  0.00  0.00     0.127 C 
BRANCH  11  12
ATOM     12  C   UNL d   1      53.592  35.102  55.041  0.00  0.00     0.119 A 
ATOM     13  O   UNL d   1      53.008  35.304  55.582  0.00  0.00    -0.304 OA
ATOM     14  C   UNL d   1      52.757  36.073  55.419  0.00  0.00     0.123 A 
ATOM     15  C   UNL d   1      53.189  36.347  54.776  0.00  0.00     0.029 A 
ATOM     16  C   UNL d   1      53.704  35.752  54.540  0.00  0.00     0.028 A 
ENDBRANCH  11  12
ENDBRANCH   9  11
ENDBRANCH   7   8
BRANCH   7  17
ATOM     17  C   UNL d   1      54.761  32.784  53.088  0.00  0.00     0.129 C 
ATOM     18  N   UNL d   1      55.527  32.795  53.387  0.00  0.00    -0.146 N 
ENDBRANCH   7  17
ENDBRANCH   1   7
BRANCH   2  19
ATOM     19  C   UNL d   1      52.094  32.882  52.989  0.00  0.00     0.067 A 
ATOM     20  C   UNL d   1      51.450  32.933  53.487  0.00  0.00     0.018 A 
ATOM     21  C   UNL d   1      50.807  33.397  53.285  0.00  0.00     0.008 A 
ATOM     22  C   UNL d   1      50.812  33.818  52.570  0.00  0.00     0.035 A 
ATOM     23  C   UNL d   1      51.463  33.764  52.069  0.00  0.00     0.008 A 
ATOM     24 BR   UNL d   1      50.171  34.286  52.360  0.00  0.00    -0.049 Br
ATOM     25  C   UNL d   1      52.104  33.298  52.277  0.00  0.00     0.018 A 
ENDBRANCH   2  19
BRANCH   5  26
ATOM     26  C   UNL d   1      52.569  30.289  53.173  0.00  0.00     0.011 C 
ATOM     27  C   UNL d   1      53.064  29.705  53.485  0.00  0.00     0.001 C 
ENDBRANCH   5  26
TORSDOF 7
ENDMDL
