MODEL 1
REMARK VINA RESULT:      -5.0      0.000      0.000
REMARK  1 active torsions:
REMARK  status: ('A' for Active; 'I' for Inactive)
REMARK    1  A    between atoms: C_5  and  C_1 
ROOT
ATOM      1  C   UNL d   1      55.965   0.084  33.261  0.00  0.00     0.005 A 
ATOM      2  C   UNL d   1      55.141   0.115  33.293  0.00  0.00     0.001 A 
ATOM      3  C   UNL d   1      56.412   0.251  33.931  0.00  0.00     0.001 A 
ATOM      4  C   UNL d   1      55.214   0.481  34.671  0.00  0.00     0.058 A 
ATOM      5  C   UNL d   1      56.038   0.451  34.639  0.00  0.00     0.011 A 
ATOM      6  C   UNL d   1      54.765   0.312  33.995  0.00  0.00     0.011 A 
ATOM      7 CL   UNL d   1      54.832   0.682  35.384  0.00  0.00    -0.082 Cl
ENDROOT
BRANCH   1   8
ATOM      8  C   UNL d   1      56.340  -0.115  32.555  0.00  0.00     0.060 A 
ATOM      9  C   UNL d   1      56.493  -0.799  32.168  0.00  0.00     0.206 A 
ATOM     10  N   UNL d   1      56.879  -0.794  31.475  0.00  0.00    -0.127 NA
ATOM     11  N   UNL d   1      56.244  -1.518  32.494  0.00  0.00    -0.125 N 
ATOM     12  N   UNL d   1      57.112  -0.100  31.173  0.00  0.00    -0.145 NA
ATOM     13  C   UNL d   1      56.962   0.582  31.556  0.00  0.00     0.125 A 
ENDBRANCH   1   8
TORSDOF 1
ENDMDL
MODEL 2
REMARK VINA RESULT:      -4.9      2.187      3.142
REMARK  1 active torsions:
REMARK  status: ('A' for Active; 'I' for Inactive)
REMARK    1  A    between atoms: C_5  and  C_1 
ROOT
ATOM      1  C   UNL d   1      56.174  -0.016  32.786  0.00  0.00     0.005 A 
ATOM      2  C   UNL d   1      56.214  -0.821  32.609  0.00  0.00     0.001 A 
ATOM      3  C   UNL d   1      56.552   0.533  32.306  0.00  0.00     0.001 A 
ATOM      4  C   UNL d   1      57.016  -0.523  31.466  0.00  0.00     0.058 A 
ATOM      5  C   UNL d   1      56.976   0.281  31.642  0.00  0.00     0.011 A 
ATOM      6  C   UNL d   1      56.633  -1.076  31.952  0.00  0.00     0.011 A 
ATOM      7 CL   UNL d   1      57.442  -0.783  30.798  0.00  0.00    -0.082 Cl
ENDROOT
BRANCH   1   8
ATOM      8  C   UNL d   1      55.752   0.237  33.447  0.00  0.00     0.060 A 
ATOM      9  C   UNL d   1      55.946   0.465  34.190  0.00  0.00     0.206 A 
ATOM     10  N   UNL d   1      55.385   0.682  34.706  0.00  0.00    -0.127 NA
ATOM     11  N   UNL d   1      56.742   0.473  34.421  0.00  0.00    -0.125 N 
ATOM     12  N   UNL d   1      54.628   0.670  34.474  0.00  0.00    -0.145 NA
ATOM     13  C   UNL d   1      54.431   0.444  33.736  0.00  0.00     0.125 A 
ENDBRANCH   1   8
TORSDOF 1
ENDMDL
MODEL 3
REMARK VINA RESULT:      -4.5      1.727      2.165
REMARK  1 active torsions:
REMARK  status: ('A' for Active; 'I' for Inactive)
REMARK    1  A    between atoms: C_5  and  C_1 
ROOT
ATOM      1  C   UNL d   1      56.965   0.082  31.886  0.00  0.00     0.005 A 
ATOM      2  C   UNL d   1      56.505   0.681  32.220  0.00  0.00     0.001 A 
ATOM      3  C   UNL d   1      56.819  -0.705  32.073  0.00  0.00     0.001 A 
ATOM      4  C   UNL d   1      55.751  -0.303  32.929  0.00  0.00     0.058 A 
ATOM      5  C   UNL d   1      56.211  -0.901  32.596  0.00  0.00     0.011 A 
ATOM      6  C   UNL d   1      55.899   0.492  32.739  0.00  0.00     0.011 A 
ATOM      7 CL   UNL d   1      55.136  -0.495  33.457  0.00  0.00    -0.082 Cl
ENDROOT
BRANCH   1   8
ATOM      8  C   UNL d   1      57.573   0.276  31.365  0.00  0.00     0.060 A 
ATOM      9  C   UNL d   1      58.323   0.543  31.443  0.00  0.00     0.206 A 
ATOM     10  N   UNL d   1      58.774   0.677  30.805  0.00  0.00    -0.127 NA
ATOM     11  N   UNL d   1      58.632   0.682  32.199  0.00  0.00    -0.125 N 
ATOM     12  N   UNL d   1      58.469   0.541  30.087  0.00  0.00    -0.145 NA
ATOM     13  C   UNL d   1      57.722   0.274  30.005  0.00  0.00     0.125 A 
ENDBRANCH   1   8
TORSDOF 1
ENDMDL
MODEL 4
REMARK VINA RESULT:      -4.5      1.996      3.028
REMARK  1 active torsions:
REMARK  status: ('A' for Active; 'I' for Inactive)
REMARK    1  A    between atoms: C_5  and  C_1 
ROOT
ATOM      1  C   UNL d   1      56.810   0.119  32.276  0.00  0.00     0.005 A 
ATOM      2  C   UNL d   1      56.804  -0.085  31.476  0.00  0.00     0.001 A 
ATOM      3  C   UNL d   1      57.461   0.499  32.602  0.00  0.00     0.001 A 
ATOM      4  C   UNL d   1      58.109   0.477  31.330  0.00  0.00     0.058 A 
ATOM      5  C   UNL d   1      58.114   0.680  32.130  0.00  0.00     0.011 A 
ATOM      6  C   UNL d   1      57.450   0.093  31.003  0.00  0.00     0.011 A 
ATOM      7 CL   UNL d   1      58.765   0.657  30.849  0.00  0.00    -0.082 Cl
ENDROOT
BRANCH   1   8
ATOM      8  C   UNL d   1      56.159  -0.061  32.748  0.00  0.00     0.060 A 
ATOM      9  C   UNL d   1      55.788  -0.736  32.969  0.00  0.00     0.206 A 
ATOM     10  N   UNL d   1      55.155  -0.712  33.446  0.00  0.00    -0.127 NA
ATOM     11  N   UNL d   1      56.069  -1.466  32.696  0.00  0.00    -0.125 N 
ATOM     12  N   UNL d   1      54.896  -0.009  33.701  0.00  0.00    -0.145 NA
ATOM     13  C   UNL d   1      55.262   0.665  33.483  0.00  0.00     0.125 A 
ENDBRANCH   1   8
TORSDOF 1
ENDMDL
MODEL 5
REMARK VINA RESULT:      -2.8      9.645     10.562
REMARK  1 active torsions:
REMARK  status: ('A' for Active; 'I' for Inactive)
REMARK    1  A    between atoms: C_5  and  C_1 
ROOT
ATOM      1  C   UNL d   1      60.157  -9.184  34.124  0.00  0.00     0.005 A 
ATOM      2  C   UNL d   1      59.529  -9.534  33.718  0.00  0.00     0.001 A 
ATOM      3  C   UNL d   1      60.869  -9.040  33.740  0.00  0.00     0.001 A 
ATOM      4  C   UNL d   1      60.334  -9.596  32.540  0.00  0.00     0.058 A 
ATOM      5  C   UNL d   1      60.961  -9.246  32.946  0.00  0.00     0.011 A 
ATOM      6  C   UNL d   1      59.615  -9.740  32.929  0.00  0.00     0.011 A 
ATOM      7 CL   UNL d   1      60.421  -9.806  31.739  0.00  0.00    -0.082 Cl
ENDROOT
BRANCH   1   8
ATOM      8  C   UNL d   1      60.067  -8.978  34.917  0.00  0.00     0.060 A 
ATOM      9  C   UNL d   1      60.396  -9.220  35.606  0.00  0.00     0.206 A 
ATOM     10  N   UNL d   1      60.177  -8.895  36.295  0.00  0.00    -0.127 NA
ATOM     11  N   UNL d   1      60.970  -9.817  35.598  0.00  0.00    -0.125 N 
ATOM     12  N   UNL d   1      59.627  -8.325  36.290  0.00  0.00    -0.145 NA
ATOM     13  C   UNL d   1      59.298  -8.082  35.607  0.00  0.00     0.125 A 
ENDBRANCH   1   8
TORSDOF 1
ENDMDL
MODEL 6
REMARK VINA RESULT:      -2.6      4.385      5.775
REMARK  1 active torsions:
REMARK  status: ('A' for Active; 'I' for Inactive)
REMARK    1  A    between atoms: C_5  and  C_1 
ROOT
ATOM      1  C   UNL d   1      58.927  -1.634  29.274  0.00  0.00     0.005 A 
ATOM      2  C   UNL d   1      58.509  -2.322  29.094  0.00  0.00     0.001 A 
ATOM      3  C   UNL d   1      59.746  -1.616  29.206  0.00  0.00     0.001 A 
ATOM      4  C   UNL d   1      59.737  -2.978  28.778  0.00  0.00     0.058 A 
ATOM      5  C   UNL d   1      60.155  -2.290  28.958  0.00  0.00     0.011 A 
ATOM      6  C   UNL d   1      58.910  -2.993  28.847  0.00  0.00     0.011 A 
ATOM      7 CL   UNL d   1      60.145  -3.659  28.527  0.00  0.00    -0.082 Cl
ENDROOT
BRANCH   1   8
ATOM      8  C   UNL d   1      58.520  -0.961  29.522  0.00  0.00     0.060 A 
ATOM      9  C   UNL d   1      58.373  -0.240  29.207  0.00  0.00     0.206 A 
ATOM     10  N   UNL d   1      57.948   0.297  29.607  0.00  0.00    -0.127 NA
ATOM     11  N   UNL d   1      58.667  -0.053  28.455  0.00  0.00    -0.125 N 
ATOM     12  N   UNL d   1      57.672   0.108  30.324  0.00  0.00    -0.145 NA
ATOM     13  C   UNL d   1      57.817  -0.609  30.641  0.00  0.00     0.125 A 
ENDBRANCH   1   8
TORSDOF 1
ENDMDL
MODEL 7
REMARK VINA RESULT:      -2.6      2.813      4.090
REMARK  1 active torsions:
REMARK  status: ('A' for Active; 'I' for Inactive)
REMARK    1  A    between atoms: C_5  and  C_1 
ROOT
ATOM      1  C   UNL d   1      57.597  -0.465  30.917  0.00  0.00     0.005 A 
ATOM      2  C   UNL d   1      57.840  -1.192  30.612  0.00  0.00     0.001 A 
ATOM      3  C   UNL d   1      57.760   0.231  30.511  0.00  0.00     0.001 A 
ATOM      4  C   UNL d   1      58.412  -0.522  29.488  0.00  0.00     0.058 A 
ATOM      5  C   UNL d   1      58.169   0.205  29.794  0.00  0.00     0.011 A 
ATOM      6  C   UNL d   1      58.246  -1.223  29.900  0.00  0.00     0.011 A 
ATOM      7 CL   UNL d   1      58.825  -0.553  28.766  0.00  0.00    -0.082 Cl
ENDROOT
BRANCH   1   8
ATOM      8  C   UNL d   1      57.189  -0.437  31.632  0.00  0.00     0.060 A 
ATOM      9  C   UNL d   1      57.203   0.041  32.275  0.00  0.00     0.206 A 
ATOM     10  N   UNL d   1      56.720  -0.093  32.889  0.00  0.00    -0.127 NA
ATOM     11  N   UNL d   1      57.727   0.682  32.297  0.00  0.00    -0.125 N 
ATOM     12  N   UNL d   1      56.223  -0.708  32.857  0.00  0.00    -0.145 NA
ATOM     13  C   UNL d   1      56.206  -1.186  32.220  0.00  0.00     0.125 A 
ENDBRANCH   1   8
TORSDOF 1
ENDMDL
MODEL 8
REMARK VINA RESULT:      -2.3      4.874      5.762
REMARK  1 active torsions:
REMARK  status: ('A' for Active; 'I' for Inactive)
REMARK    1  A    between atoms: C_5  and  C_1 
ROOT
ATOM      1  C   UNL d   1      58.942  -1.793  28.996  0.00  0.00     0.005 A 
ATOM      2  C   UNL d   1      59.144  -1.204  28.456  0.00  0.00     0.001 A 
ATOM      3  C   UNL d   1      58.521  -1.605  29.677  0.00  0.00     0.001 A 
ATOM      4  C   UNL d   1      58.499  -0.234  29.282  0.00  0.00     0.058 A 
ATOM      5  C   UNL d   1      58.297  -0.824  29.823  0.00  0.00     0.011 A 
ATOM      6  C   UNL d   1      58.924  -0.426  28.596  0.00  0.00     0.011 A 
ATOM      7 CL   UNL d   1      58.275   0.556  29.424  0.00  0.00    -0.082 Cl
ENDROOT
BRANCH   1   8
ATOM      8  C   UNL d   1      59.165  -2.573  28.852  0.00  0.00     0.060 A 
ATOM      9  C   UNL d   1      59.853  -2.982  28.885  0.00  0.00     0.206 A 
ATOM     10  N   UNL d   1      59.874  -3.754  28.705  0.00  0.00    -0.127 NA
ATOM     11  N   UNL d   1      60.550  -2.593  29.108  0.00  0.00    -0.125 N 
ATOM     12  N   UNL d   1      59.203  -4.115  28.493  0.00  0.00    -0.145 NA
ATOM     13  C   UNL d   1      58.516  -3.712  28.460  0.00  0.00     0.125 A 
ENDBRANCH   1   8
TORSDOF 1
ENDMDL
