MODEL 1
REMARK VINA RESULT:      -6.0      0.000      0.000
REMARK  1 active torsions:
REMARK  status: ('A' for Active; 'I' for Inactive)
REMARK    1  A    between atoms: C_10  and  C_5 
ROOT
ATOM      1  C   UNL d   1     -41.550-123.161 -52.354  0.00  0.00     0.118 A 
ATOM      2  C   UNL d   1     -41.385-122.471 -51.957  0.00  0.00     0.088 A 
ATOM      3  N   UNL d   1     -41.652-123.147 -53.190  0.00  0.00    -0.219 NA
ATOM      4  C   UNL d   1     -41.324-121.772 -52.399  0.00  0.00     0.303 A 
ATOM      5  C   UNL d   1     -41.588-122.446 -53.603  0.00  0.00     0.162 A 
ATOM      6  O   UNL d   1     -41.424-121.761 -53.205  0.00  0.00    -0.259 OA
ATOM      7  S   UNL d   1     -41.582-123.783 -51.790  0.00  0.00    -0.068 SA
ATOM      8  C   UNL d   1     -41.316-122.656 -51.161  0.00  0.00     0.013 A 
ATOM      9  C   UNL d   1     -41.435-123.440 -51.072  0.00  0.00     0.031 A 
ATOM     10  O   UNL d   1     -41.158-121.049 -52.028  0.00  0.00    -0.259 OA
ATOM     11  C   UNL d   1     -41.155-122.177 -50.514  0.00  0.00     0.001 A 
ATOM     12  C   UNL d   1     -41.405-123.814 -50.338  0.00  0.00     0.006 A 
ATOM     13  C   UNL d   1     -41.123-122.551 -49.760  0.00  0.00     0.000 A 
ATOM     14  C   UNL d   1     -41.240-123.325 -49.666  0.00  0.00     0.001 A 
ENDROOT
BRANCH   5  15
ATOM     15  C   UNL d   1     -41.697-122.470 -54.437  0.00  0.00     0.058 C 
ATOM     16  C   UNL d   1     -42.260-121.871 -54.361  0.00  0.00     0.008 C 
ATOM     17  C   UNL d   1     -41.827-122.469 -55.249  0.00  0.00     0.008 C 
ATOM     18  C   UNL d   1     -41.133-123.070 -54.518  0.00  0.00     0.008 C 
ENDBRANCH   5  15
TORSDOF 1
ENDMDL
MODEL 2
REMARK VINA RESULT:      -5.4      0.959      3.373
REMARK  1 active torsions:
REMARK  status: ('A' for Active; 'I' for Inactive)
REMARK    1  A    between atoms: C_10  and  C_5 
ROOT
ATOM      1  C   UNL d   1     -41.595-123.278 -51.845  0.00  0.00     0.118 A 
ATOM      2  C   UNL d   1     -41.488-122.525 -52.130  0.00  0.00     0.088 A 
ATOM      3  N   UNL d   1     -41.735-123.397 -51.022  0.00  0.00    -0.219 NA
ATOM      4  C   UNL d   1     -41.521-121.896 -51.591  0.00  0.00     0.303 A 
ATOM      5  C   UNL d   1     -41.763-122.761 -50.512  0.00  0.00     0.162 A 
ATOM      6  O   UNL d   1     -41.657-122.013 -50.798  0.00  0.00    -0.259 OA
ATOM      7  S   UNL d   1     -41.537-123.811 -52.491  0.00  0.00    -0.068 SA
ATOM      8  C   UNL d   1     -41.365-122.584 -52.938  0.00  0.00     0.013 A 
ATOM      9  C   UNL d   1     -41.396-123.354 -53.144  0.00  0.00     0.031 A 
ATOM     10  O   UNL d   1     -41.417-121.113 -51.845  0.00  0.00    -0.259 OA
ATOM     11  C   UNL d   1     -41.228-122.001 -53.500  0.00  0.00     0.001 A 
ATOM     12  C   UNL d   1     -41.294-123.611 -53.921  0.00  0.00     0.006 A 
ATOM     13  C   UNL d   1     -41.123-122.255 -54.297  0.00  0.00     0.000 A 
ATOM     14  C   UNL d   1     -41.152-123.014 -54.505  0.00  0.00     0.001 A 
ENDROOT
BRANCH   5  15
ATOM     15  C   UNL d   1     -41.905-122.918 -49.697  0.00  0.00     0.058 C 
ATOM     16  C   UNL d   1     -42.681-122.653 -49.801  0.00  0.00     0.008 C 
ATOM     17  C   UNL d   1     -42.077-123.061 -48.906  0.00  0.00     0.008 C 
ATOM     18  C   UNL d   1     -41.130-123.186 -49.587  0.00  0.00     0.008 C 
ENDBRANCH   5  15
TORSDOF 1
ENDMDL
MODEL 3
REMARK VINA RESULT:      -5.3      1.592      2.279
REMARK  1 active torsions:
REMARK  status: ('A' for Active; 'I' for Inactive)
REMARK    1  A    between atoms: C_10  and  C_5 
ROOT
ATOM      1  C   UNL d   1     -41.461-123.289 -50.239  0.00  0.00     0.118 A 
ATOM      2  C   UNL d   1     -42.144-122.924 -49.995  0.00  0.00     0.088 A 
ATOM      3  N   UNL d   1     -41.218-123.227 -51.044  0.00  0.00    -0.219 NA
ATOM      4  C   UNL d   1     -42.581-122.499 -50.557  0.00  0.00     0.303 A 
ATOM      5  C   UNL d   1     -41.666-122.803 -51.578  0.00  0.00     0.162 A 
ATOM      6  O   UNL d   1     -42.345-122.440 -51.333  0.00  0.00    -0.259 OA
ATOM      7  S   UNL d   1     -41.124-123.679 -49.575  0.00  0.00    -0.068 SA
ATOM      8  C   UNL d   1     -42.235-123.081 -49.195  0.00  0.00     0.013 A 
ATOM      9  C   UNL d   1     -41.622-123.531 -48.955  0.00  0.00     0.031 A 
ATOM     10  O   UNL d   1     -43.284-122.113 -50.345  0.00  0.00    -0.259 OA
ATOM     11  C   UNL d   1     -42.822-122.852 -48.670  0.00  0.00     0.001 A 
ATOM     12  C   UNL d   1     -41.539-123.792 -48.176  0.00  0.00     0.006 A 
ATOM     13  C   UNL d   1     -42.746-123.113 -47.873  0.00  0.00     0.000 A 
ATOM     14  C   UNL d   1     -42.143-123.558 -47.630  0.00  0.00     0.001 A 
ENDROOT
BRANCH   5  15
ATOM     15  C   UNL d   1     -41.392-122.762 -52.374  0.00  0.00     0.058 C 
ATOM     16  C   UNL d   1     -41.325-121.943 -52.288  0.00  0.00     0.008 C 
ATOM     17  C   UNL d   1     -41.123-122.688 -53.146  0.00  0.00     0.008 C 
ATOM     18  C   UNL d   1     -41.458-123.582 -52.464  0.00  0.00     0.008 C 
ENDBRANCH   5  15
TORSDOF 1
ENDMDL
MODEL 4
REMARK VINA RESULT:      -4.2      1.195      3.719
REMARK  1 active torsions:
REMARK  status: ('A' for Active; 'I' for Inactive)
REMARK    1  A    between atoms: C_10  and  C_5 
ROOT
ATOM      1  C   UNL d   1     -42.010-121.856 -53.003  0.00  0.00     0.118 A 
ATOM      2  C   UNL d   1     -41.745-122.520 -53.389  0.00  0.00     0.088 A 
ATOM      3  N   UNL d   1     -41.932-121.801 -52.166  0.00  0.00    -0.219 NA
ATOM      4  C   UNL d   1     -41.404-123.124 -52.935  0.00  0.00     0.303 A 
ATOM      5  C   UNL d   1     -41.592-122.409 -51.741  0.00  0.00     0.162 A 
ATOM      6  O   UNL d   1     -41.330-123.069 -52.128  0.00  0.00    -0.259 OA
ATOM      7  S   UNL d   1     -42.328-121.332 -53.577  0.00  0.00    -0.068 SA
ATOM      8  C   UNL d   1     -41.894-122.415 -54.188  0.00  0.00     0.013 A 
ATOM      9  C   UNL d   1     -42.241-121.705 -54.290  0.00  0.00     0.031 A 
ATOM     10  O   UNL d   1     -41.123-123.817 -53.294  0.00  0.00    -0.259 OA
ATOM     11  C   UNL d   1     -41.742-122.907 -54.828  0.00  0.00     0.001 A 
ATOM     12  C   UNL d   1     -42.467-121.422 -55.032  0.00  0.00     0.006 A 
ATOM     13  C   UNL d   1     -41.969-122.626 -55.589  0.00  0.00     0.000 A 
ATOM     14  C   UNL d   1     -42.312-121.925 -55.695  0.00  0.00     0.001 A 
ENDROOT
BRANCH   5  15
ATOM     15  C   UNL d   1     -41.531-122.318 -50.906  0.00  0.00     0.058 C 
ATOM     16  C   UNL d   1     -41.937-123.033 -50.819  0.00  0.00     0.008 C 
ATOM     17  C   UNL d   1     -41.488-122.260 -50.088  0.00  0.00     0.008 C 
ATOM     18  C   UNL d   1     -41.124-121.603 -50.989  0.00  0.00     0.008 C 
ENDBRANCH   5  15
TORSDOF 1
ENDMDL
MODEL 5
REMARK VINA RESULT:      -3.1      1.266      1.702
REMARK  1 active torsions:
REMARK  status: ('A' for Active; 'I' for Inactive)
REMARK    1  A    between atoms: C_10  and  C_5 
ROOT
ATOM      1  C   UNL d   1     -41.632-121.675 -53.054  0.00  0.00     0.118 A 
ATOM      2  C   UNL d   1     -41.742-122.428 -52.770  0.00  0.00     0.088 A 
ATOM      3  N   UNL d   1     -41.715-121.524 -53.880  0.00  0.00    -0.219 NA
ATOM      4  C   UNL d   1     -41.934-123.025 -53.313  0.00  0.00     0.303 A 
ATOM      5  C   UNL d   1     -41.905-122.128 -54.393  0.00  0.00     0.162 A 
ATOM      6  O   UNL d   1     -42.014-122.877 -54.108  0.00  0.00    -0.259 OA
ATOM      7  S   UNL d   1     -41.445-121.177 -52.404  0.00  0.00    -0.068 SA
ATOM      8  C   UNL d   1     -41.626-122.403 -51.959  0.00  0.00     0.013 A 
ATOM      9  C   UNL d   1     -41.450-121.654 -51.751  0.00  0.00     0.031 A 
ATOM     10  O   UNL d   1     -42.054-123.806 -53.059  0.00  0.00    -0.259 OA
ATOM     11  C   UNL d   1     -41.667-123.000 -51.396  0.00  0.00     0.001 A 
ATOM     12  C   UNL d   1     -41.299-121.432 -50.970  0.00  0.00     0.006 A 
ATOM     13  C   UNL d   1     -41.515-122.783 -50.597  0.00  0.00     0.000 A 
ATOM     14  C   UNL d   1     -41.340-122.044 -50.385  0.00  0.00     0.001 A 
ENDROOT
BRANCH   5  15
ATOM     15  C   UNL d   1     -41.979-121.940 -55.210  0.00  0.00     0.058 C 
ATOM     16  C   UNL d   1     -41.239-121.574 -55.173  0.00  0.00     0.008 C 
ATOM     17  C   UNL d   1     -42.020-121.740 -56.007  0.00  0.00     0.008 C 
ATOM     18  C   UNL d   1     -42.720-122.306 -55.253  0.00  0.00     0.008 C 
ENDBRANCH   5  15
TORSDOF 1
ENDMDL
