MODEL 1
REMARK VINA RESULT:      72.6      0.000      0.000
REMARK  5 active torsions:
REMARK  status: ('A' for Active; 'I' for Inactive)
REMARK    1  A    between atoms: S_2  and  N_1 
REMARK    2  A    between atoms: C_10  and  S_2 
REMARK    3  A    between atoms: N_7  and  C_3 
REMARK    4  A    between atoms: C_12  and  C_6 
REMARK    5  A    between atoms: C_13  and  N_7 
ROOT
ATOM      1  N   UNL d   1     -58.563 -99.162 -44.434  0.00  0.00    -0.176 N 
ATOM      2  C   UNL d   1     -57.775 -99.200 -44.204  0.00  0.00     0.191 A 
ATOM      3  C   UNL d   1     -59.033 -99.065 -43.774  0.00  0.00     0.281 A 
ATOM      4  S   UNL d   1     -57.766 -99.124 -43.382  0.00  0.00    -0.044 SA
ATOM      5  C   UNL d   1     -58.564 -99.040 -43.135  0.00  0.00     0.089 A 
ATOM      6  O   UNL d   1     -59.875 -98.998 -43.737  0.00  0.00    -0.265 OA
ENDROOT
BRANCH   1   7
ATOM      7  S   UNL d   1     -58.847 -99.213 -45.203  0.00  0.00     0.275 S 
ATOM      8  O   UNL d   1     -59.567 -99.553 -44.956  0.00  0.00    -0.199 OA
ATOM      9  O   UNL d   1     -58.142 -98.875 -45.494  0.00  0.00    -0.199 OA
BRANCH   7  10
ATOM     10  C   UNL d   1     -59.122 -99.260 -45.970  0.00  0.00     0.104 A 
ATOM     11  C   UNL d   1     -58.810 -98.755 -46.553  0.00  0.00     0.013 A 
ATOM     12  C   UNL d   1     -59.074 -98.784 -47.342  0.00  0.00     0.001 A 
ATOM     13  C   UNL d   1     -59.681 -99.344 -47.561  0.00  0.00     0.000 A 
ATOM     14  C   UNL d   1     -59.959 -99.817 -46.971  0.00  0.00     0.001 A 
ATOM     15  C   UNL d   1     -59.703 -99.788 -46.205  0.00  0.00     0.013 A 
ENDBRANCH   7  10
ENDBRANCH   1   7
BRANCH   2  16
ATOM     16  N   UNL d   1     -57.189 -99.296 -44.754  0.00  0.00    -0.222 NA
BRANCH  16  17
ATOM     17  C   UNL d   1     -56.393 -99.282 -44.513  0.00  0.00     0.084 A 
ATOM     18  C   UNL d   1     -55.848 -99.774 -44.881  0.00  0.00     0.019 A 
ATOM     19  C   UNL d   1     -55.055 -99.770 -44.652  0.00  0.00     0.002 A 
ATOM     20  C   UNL d   1     -54.814 -99.251 -44.032  0.00  0.00     0.000 A 
ATOM     21  C   UNL d   1     -55.360 -98.760 -43.664  0.00  0.00     0.002 A 
ATOM     22  C   UNL d   1     -56.152 -98.779 -43.909  0.00  0.00     0.019 A 
ENDBRANCH  16  17
ENDBRANCH   2  16
BRANCH   5  23
ATOM     23  C   UNL d   1     -58.855 -98.947 -42.374  0.00  0.00     0.011 A 
ATOM     24  C   UNL d   1     -58.344 -98.912 -41.746  0.00  0.00     0.001 A 
ATOM     25  C   UNL d   1     -58.632 -98.818 -40.977  0.00  0.00     0.000 A 
ATOM     26  C   UNL d   1     -59.436 -98.759 -40.833  0.00  0.00     0.000 A 
ATOM     27  C   UNL d   1     -59.959 -98.795 -41.482  0.00  0.00     0.000 A 
ATOM     28  C   UNL d   1     -59.675 -98.889 -42.255  0.00  0.00     0.001 A 
ENDBRANCH   5  23
TORSDOF 5
ENDMDL
