MODEL 1
REMARK VINA RESULT:      -9.3      0.000      0.000
REMARK  2 active torsions:
REMARK  status: ('A' for Active; 'I' for Inactive)
REMARK    1  A    between atoms: C_6  and  C_1 
REMARK    2  A    between atoms: C_9  and  C_2 
ROOT
ATOM      1  C   UNL d   1     -47.901  13.641  22.438  0.00  0.00     0.039 A 
ATOM      2  C   UNL d   1     -47.936  14.372  22.809  0.00  0.00     0.120 A 
ATOM      3  N   UNL d   1     -47.177  14.565  23.076  0.00  0.00    -0.164 NA
ATOM      4  N   UNL d   1     -46.681  13.949  22.866  0.00  0.00    -0.228 N 
ATOM      5  C   UNL d   1     -47.126  13.376  22.471  0.00  0.00     0.085 A 
ATOM      6  C   UNL d   1     -45.897  13.680  22.899  0.00  0.00     0.101 A 
ATOM      7  C   UNL d   1     -46.615  12.754  22.261  0.00  0.00     0.021 A 
ATOM      8  C   UNL d   1     -45.860  12.945  22.525  0.00  0.00     0.022 A 
ENDROOT
BRANCH   1   9
ATOM      9  C   UNL d   1     -48.532  13.239  22.091  0.00  0.00     0.006 A 
ATOM     10  C   UNL d   1     -48.899  12.629  22.487  0.00  0.00     0.018 A 
ATOM     11  C   UNL d   1     -49.530  12.227  22.141  0.00  0.00     0.085 A 
ATOM     12  C   UNL d   1     -48.637  12.410  23.243  0.00  0.00     0.005 A 
ATOM     13  C   UNL d   1     -49.905  11.604  22.546  0.00  0.00     0.061 A 
ATOM     14  N   UNL d   1     -49.792  12.444  21.388  0.00  0.00    -0.244 NA
ATOM     15  C   UNL d   1     -49.636  11.393  23.299  0.00  0.00     0.197 A 
ATOM     16  C   UNL d   1     -49.012  11.791  23.642  0.00  0.00     0.042 A 
ATOM     17  O   UNL d   1     -50.010  10.775  23.698  0.00  0.00    -0.286 OA
ATOM     18  C   UNL d   1     -49.424  13.059  20.986  0.00  0.00     0.099 A 
ATOM     19  C   UNL d   1     -48.791  13.460  21.337  0.00  0.00     0.021 A 
ENDBRANCH   1   9
BRANCH   2  20
ATOM     20  C   UNL d   1     -48.609  14.838  22.903  0.00  0.00     0.101 A 
ATOM     21  N   UNL d   1     -49.043  14.801  23.600  0.00  0.00    -0.242 NA
ATOM     22  C   UNL d   1     -49.709  15.259  23.698  0.00  0.00     0.099 A 
ATOM     23  C   UNL d   1     -49.954  15.769  23.088  0.00  0.00     0.021 A 
ATOM     24  C   UNL d   1     -49.518  15.807  22.385  0.00  0.00     0.003 A 
ATOM     25  C   UNL d   1     -48.846  15.338  22.301  0.00  0.00     0.021 A 
ENDBRANCH   2  20
TORSDOF 2
ENDMDL
MODEL 2
REMARK VINA RESULT:      -8.8      0.738      2.469
REMARK  2 active torsions:
REMARK  status: ('A' for Active; 'I' for Inactive)
REMARK    1  A    between atoms: C_6  and  C_1 
REMARK    2  A    between atoms: C_9  and  C_2 
ROOT
ATOM      1  C   UNL d   1     -48.797  14.113  22.594  0.00  0.00     0.039 A 
ATOM      2  C   UNL d   1     -48.091  14.366  22.926  0.00  0.00     0.120 A 
ATOM      3  N   UNL d   1     -48.210  15.114  23.258  0.00  0.00    -0.164 NA
ATOM      4  N   UNL d   1     -48.993  15.316  23.126  0.00  0.00    -0.228 N 
ATOM      5  C   UNL d   1     -49.358  14.699  22.716  0.00  0.00     0.085 A 
ATOM      6  C   UNL d   1     -49.560  15.908  23.248  0.00  0.00     0.101 A 
ATOM      7  C   UNL d   1     -50.152  14.912  22.586  0.00  0.00     0.021 A 
ATOM      8  C   UNL d   1     -50.272  15.656  22.915  0.00  0.00     0.022 A 
ENDROOT
BRANCH   1   9
ATOM      9  C   UNL d   1     -48.926  13.398  22.206  0.00  0.00     0.006 A 
ATOM     10  C   UNL d   1     -49.349  12.803  22.569  0.00  0.00     0.018 A 
ATOM     11  C   UNL d   1     -49.478  12.087  22.181  0.00  0.00     0.085 A 
ATOM     12  C   UNL d   1     -49.651  12.917  23.332  0.00  0.00     0.005 A 
ATOM     13  C   UNL d   1     -49.910  11.480  22.552  0.00  0.00     0.061 A 
ATOM     14  N   UNL d   1     -49.178  11.971  21.420  0.00  0.00    -0.244 NA
ATOM     15  C   UNL d   1     -50.207  11.604  23.313  0.00  0.00     0.197 A 
ATOM     16  C   UNL d   1     -50.079  12.312  23.698  0.00  0.00     0.042 A 
ATOM     17  O   UNL d   1     -50.635  10.999  23.678  0.00  0.00    -0.286 OA
ATOM     18  C   UNL d   1     -48.751  12.569  21.052  0.00  0.00     0.099 A 
ATOM     19  C   UNL d   1     -48.624  13.287  21.445  0.00  0.00     0.021 A 
ENDBRANCH   1   9
BRANCH   2  20
ATOM     20  C   UNL d   1     -47.380  13.948  22.931  0.00  0.00     0.101 A 
ATOM     21  N   UNL d   1     -47.198  13.451  23.560  0.00  0.00    -0.242 NA
ATOM     22  C   UNL d   1     -46.497  13.036  23.570  0.00  0.00     0.099 A 
ATOM     23  C   UNL d   1     -45.960  13.115  22.940  0.00  0.00     0.021 A 
ATOM     24  C   UNL d   1     -46.142  13.616  22.306  0.00  0.00     0.003 A 
ATOM     25  C   UNL d   1     -46.855  14.029  22.310  0.00  0.00     0.021 A 
ENDBRANCH   2  20
TORSDOF 2
ENDMDL
MODEL 3
REMARK VINA RESULT:      -7.8      1.439      2.728
REMARK  2 active torsions:
REMARK  status: ('A' for Active; 'I' for Inactive)
REMARK    1  A    between atoms: C_6  and  C_1 
REMARK    2  A    between atoms: C_9  and  C_2 
ROOT
ATOM      1  C   UNL d   1     -48.019  13.541  22.621  0.00  0.00     0.039 A 
ATOM      2  C   UNL d   1     -47.936  12.835  23.031  0.00  0.00     0.120 A 
ATOM      3  N   UNL d   1     -47.199  12.836  23.406  0.00  0.00    -0.164 NA
ATOM      4  N   UNL d   1     -46.834  13.546  23.223  0.00  0.00    -0.228 N 
ATOM      5  C   UNL d   1     -47.340  13.984  22.738  0.00  0.00     0.085 A 
ATOM      6  C   UNL d   1     -46.147  13.995  23.340  0.00  0.00     0.101 A 
ATOM      7  C   UNL d   1     -46.962  14.703  22.556  0.00  0.00     0.021 A 
ATOM      8  C   UNL d   1     -46.229  14.705  22.929  0.00  0.00     0.022 A 
ENDROOT
BRANCH   1   9
ATOM      9  C   UNL d   1     -48.670  13.769  22.170  0.00  0.00     0.006 A 
ATOM     10  C   UNL d   1     -49.211  14.302  22.468  0.00  0.00     0.018 A 
ATOM     11  C   UNL d   1     -49.862  14.531  22.017  0.00  0.00     0.085 A 
ATOM     12  C   UNL d   1     -49.106  14.616  23.228  0.00  0.00     0.005 A 
ATOM     13  C   UNL d   1     -50.414  15.075  22.322  0.00  0.00     0.061 A 
ATOM     14  N   UNL d   1     -49.968  14.219  21.260  0.00  0.00    -0.244 NA
ATOM     15  C   UNL d   1     -50.300  15.382  23.081  0.00  0.00     0.197 A 
ATOM     16  C   UNL d   1     -49.655  15.156  23.527  0.00  0.00     0.042 A 
ATOM     17  O   UNL d   1     -50.849  15.922  23.380  0.00  0.00    -0.286 OA
ATOM     18  C   UNL d   1     -49.425  13.682  20.957  0.00  0.00     0.099 A 
ATOM     19  C   UNL d   1     -48.773  13.455  21.413  0.00  0.00     0.021 A 
ENDBRANCH   1   9
BRANCH   2  20
ATOM     20  C   UNL d   1     -48.489  12.225  23.066  0.00  0.00     0.101 A 
ATOM     21  N   UNL d   1     -49.057  12.217  23.659  0.00  0.00    -0.242 NA
ATOM     22  C   UNL d   1     -49.606  11.616  23.698  0.00  0.00     0.099 A 
ATOM     23  C   UNL d   1     -49.594  11.006  23.134  0.00  0.00     0.021 A 
ATOM     24  C   UNL d   1     -49.021  11.013  22.535  0.00  0.00     0.003 A 
ATOM     25  C   UNL d   1     -48.473  11.626  22.508  0.00  0.00     0.021 A 
ENDBRANCH   2  20
TORSDOF 2
ENDMDL
MODEL 4
REMARK VINA RESULT:      -6.5      1.511      3.175
REMARK  2 active torsions:
REMARK  status: ('A' for Active; 'I' for Inactive)
REMARK    1  A    between atoms: C_6  and  C_1 
REMARK    2  A    between atoms: C_9  and  C_2 
ROOT
ATOM      1  C   UNL d   1     -48.813  12.807  23.174  0.00  0.00     0.039 A 
ATOM      2  C   UNL d   1     -48.038  12.574  23.040  0.00  0.00     0.120 A 
ATOM      3  N   UNL d   1     -47.987  11.757  23.156  0.00  0.00    -0.164 NA
ATOM      4  N   UNL d   1     -48.735  11.493  23.361  0.00  0.00    -0.228 N 
ATOM      5  C   UNL d   1     -49.248  12.141  23.373  0.00  0.00     0.085 A 
ATOM      6  C   UNL d   1     -49.175  10.820  23.563  0.00  0.00     0.101 A 
ATOM      7  C   UNL d   1     -50.004  11.865  23.582  0.00  0.00     0.021 A 
ATOM      8  C   UNL d   1     -49.955  11.053  23.698  0.00  0.00     0.022 A 
ENDROOT
BRANCH   1   9
ATOM      9  C   UNL d   1     -49.109  13.575  23.119  0.00  0.00     0.006 A 
ATOM     10  C   UNL d   1     -49.593  13.786  22.498  0.00  0.00     0.018 A 
ATOM     11  C   UNL d   1     -49.888  14.554  22.443  0.00  0.00     0.085 A 
ATOM     12  C   UNL d   1     -49.790  13.227  21.919  0.00  0.00     0.005 A 
ATOM     13  C   UNL d   1     -50.383  14.769  21.809  0.00  0.00     0.061 A 
ATOM     14  N   UNL d   1     -49.693  15.112  23.019  0.00  0.00    -0.244 NA
ATOM     15  C   UNL d   1     -50.574  14.204  21.236  0.00  0.00     0.197 A 
ATOM     16  C   UNL d   1     -50.281  13.444  21.291  0.00  0.00     0.042 A 
ATOM     17  O   UNL d   1     -51.064  14.421  20.609  0.00  0.00    -0.286 OA
ATOM     18  C   UNL d   1     -49.205  14.902  23.646  0.00  0.00     0.099 A 
ATOM     19  C   UNL d   1     -48.910  14.130  23.698  0.00  0.00     0.021 A 
ENDBRANCH   1   9
BRANCH   2  20
ATOM     20  C   UNL d   1     -47.413  13.067  22.825  0.00  0.00     0.101 A 
ATOM     21  N   UNL d   1     -47.229  13.179  22.032  0.00  0.00    -0.242 NA
ATOM     22  C   UNL d   1     -46.612  13.664  21.816  0.00  0.00     0.099 A 
ATOM     23  C   UNL d   1     -46.164  14.051  22.399  0.00  0.00     0.021 A 
ATOM     24  C   UNL d   1     -46.348  13.939  23.199  0.00  0.00     0.003 A 
ATOM     25  C   UNL d   1     -46.975  13.445  23.403  0.00  0.00     0.021 A 
ENDBRANCH   2  20
TORSDOF 2
ENDMDL
