MODEL 1
REMARK VINA RESULT:      29.5      0.000      0.000
REMARK  5 active torsions:
REMARK  status: ('A' for Active; 'I' for Inactive)
REMARK    1  A    between atoms: C_2  and  C_1 
REMARK    2  A    between atoms: C_3  and  C_1 
REMARK    3  A    between atoms: C_4  and  C_2 
REMARK    4  A    between atoms: O_9  and  C_6 
REMARK    5  A    between atoms: O_10  and  C_7 
ROOT
ATOM      1  C   UNL d   1     -56.880 -99.082 -43.906  0.00  0.00     0.236 C 
ATOM      2  O   UNL d   1     -56.947 -99.013 -43.093  0.00  0.00    -0.283 OA
ENDROOT
BRANCH   1   3
ATOM      3  C   UNL d   1     -57.509 -98.906 -44.411  0.00  0.00     0.236 C 
ATOM      4  O   UNL d   1     -57.383 -98.774 -45.205  0.00  0.00    -0.283 OA
BRANCH   3   5
ATOM      5  C   UNL d   1     -58.287 -98.862 -44.102  0.00  0.00     0.065 A 
ATOM      6  C   UNL d   1     -58.933 -98.878 -44.580  0.00  0.00     0.097 A 
ATOM      7  C   UNL d   1     -59.699 -98.833 -44.261  0.00  0.00     0.024 A 
ATOM      8  C   UNL d   1     -59.784 -98.772 -43.446  0.00  0.00     0.002 A 
ATOM      9  C   UNL d   1     -59.137 -98.756 -42.963  0.00  0.00     0.000 A 
ATOM     10  C   UNL d   1     -58.372 -98.801 -43.288  0.00  0.00     0.005 A 
BRANCH   6  11
ATOM     11  O   UNL d   1     -58.842 -98.940 -45.408  0.00  0.00    -0.328 OA
ATOM     12  C   UNL d   1     -59.405 -98.833 -45.870  0.00  0.00     0.181 C 
ENDBRANCH   6  11
ENDBRANCH   3   5
ENDBRANCH   1   3
BRANCH   1  13
ATOM     13  C   UNL d   1     -56.164 -99.335 -44.234  0.00  0.00     0.065 A 
ATOM     14  C   UNL d   1     -55.957-100.131 -44.197  0.00  0.00     0.097 A 
ATOM     15  C   UNL d   1     -55.242-100.375 -44.526  0.00  0.00     0.024 A 
ATOM     16  C   UNL d   1     -54.744 -99.836 -44.885  0.00  0.00     0.002 A 
ATOM     17  C   UNL d   1     -54.942 -99.058 -44.924  0.00  0.00     0.000 A 
ATOM     18  C   UNL d   1     -55.654 -98.786 -44.601  0.00  0.00     0.005 A 
BRANCH  14  19
ATOM     19  O   UNL d   1     -56.472-100.707 -43.822  0.00  0.00    -0.328 OA
ATOM     20  C   UNL d   1     -56.184-101.401 -43.476  0.00  0.00     0.181 C 
ENDBRANCH  14  19
ENDBRANCH   1  13
TORSDOF 5
ENDMDL
MODEL 2
REMARK VINA RESULT:      31.8      0.953      3.423
REMARK  5 active torsions:
REMARK  status: ('A' for Active; 'I' for Inactive)
REMARK    1  A    between atoms: C_2  and  C_1 
REMARK    2  A    between atoms: C_3  and  C_1 
REMARK    3  A    between atoms: C_4  and  C_2 
REMARK    4  A    between atoms: O_9  and  C_6 
REMARK    5  A    between atoms: O_10  and  C_7 
ROOT
ATOM      1  C   UNL d   1     -57.479 -98.842 -44.346  0.00  0.00     0.236 C 
ATOM      2  O   UNL d   1     -57.473 -98.755 -43.532  0.00  0.00    -0.283 OA
ENDROOT
BRANCH   1   3
ATOM      3  C   UNL d   1     -56.784 -98.956 -44.778  0.00  0.00     0.236 C 
ATOM      4  O   UNL d   1     -56.774 -98.863 -45.586  0.00  0.00    -0.283 OA
BRANCH   3   5
ATOM      5  C   UNL d   1     -56.080 -99.172 -44.376  0.00  0.00     0.065 A 
ATOM      6  C   UNL d   1     -55.606 -99.763 -44.644  0.00  0.00     0.097 A 
ATOM      7  C   UNL d   1     -54.911 -99.967 -44.236  0.00  0.00     0.024 A 
ATOM      8  C   UNL d   1     -54.716 -99.553 -43.554  0.00  0.00     0.002 A 
ATOM      9  C   UNL d   1     -55.191 -98.958 -43.283  0.00  0.00     0.000 A 
ATOM     10  C   UNL d   1     -55.886 -98.758 -43.694  0.00  0.00     0.005 A 
BRANCH   6  11
ATOM     11  O   UNL d   1     -55.807-100.182 -45.337  0.00  0.00    -0.328 OA
ATOM     12  C   UNL d   1     -55.816-100.918 -45.359  0.00  0.00     0.181 C 
ENDBRANCH   6  11
ENDBRANCH   3   5
ENDBRANCH   1   3
BRANCH   1  13
ATOM     13  C   UNL d   1     -58.200 -98.814 -44.751  0.00  0.00     0.065 A 
ATOM     14  C   UNL d   1     -58.905 -98.785 -44.328  0.00  0.00     0.097 A 
ATOM     15  C   UNL d   1     -59.618 -98.758 -44.740  0.00  0.00     0.024 A 
ATOM     16  C   UNL d   1     -59.628 -98.759 -45.557  0.00  0.00     0.002 A 
ATOM     17  C   UNL d   1     -58.942 -98.787 -45.974  0.00  0.00     0.000 A 
ATOM     18  C   UNL d   1     -58.211 -98.815 -45.586  0.00  0.00     0.005 A 
BRANCH  14  19
ATOM     19  O   UNL d   1     -58.908 -98.783 -43.470  0.00  0.00    -0.328 OA
ATOM     20  C   UNL d   1     -59.565 -99.022 -43.028  0.00  0.00     0.181 C 
ENDBRANCH  14  19
ENDBRANCH   1  13
TORSDOF 5
ENDMDL
