MODEL 1
REMARK VINA RESULT:     -10.6      0.000      0.000
REMARK  3 active torsions:
REMARK  status: ('A' for Active; 'I' for Inactive)
REMARK    1  A    between atoms: C_2  and  C_1 
REMARK       I    between atoms: N_3  and  C_2 
REMARK    2  A    between atoms: C_21  and  N_4 
REMARK    3  A    between atoms: C_20  and  C_21 
ROOT
ATOM      1  C   UNL d   1      52.013  34.383  53.276  0.00  0.00     0.255 C 
ATOM      2  N   UNL d   1      52.498  33.692  53.278  0.00  0.00    -0.271 N 
ATOM      3  N   UNL d   1      53.460  32.346  53.292  0.00  0.00    -0.300 N 
ATOM      4  O   UNL d   1      52.228  34.993  53.686  0.00  0.00    -0.270 OA
ATOM      5  C   UNL d   1      53.194  33.672  53.714  0.00  0.00     0.102 A 
ATOM      6  C   UNL d   1      52.276  33.030  52.840  0.00  0.00     0.102 A 
ATOM      7  C   UNL d   1      52.756  32.345  52.842  0.00  0.00     0.100 A 
ATOM      8  C   UNL d   1      53.681  33.015  53.732  0.00  0.00     0.100 A 
ENDROOT
BRANCH   1   9
ATOM      9  C   UNL d   1      51.333  34.395  52.846  0.00  0.00     0.137 A 
ATOM     10  C   UNL d   1      50.806  34.690  53.396  0.00  0.00     0.033 A 
ATOM     11  C   UNL d   1      50.004  34.828  53.274  0.00  0.00     0.046 A 
ATOM     12  C   UNL d   1      49.423  34.782  52.736  0.00  0.00    -0.015 A 
ATOM     13  C   UNL d   1      49.678  34.681  52.598  0.00  0.00    -0.022 A 
ATOM     14  C   UNL d   1      49.713  34.511  52.100  0.00  0.00     0.027 A 
ATOM     15  C   UNL d   1      50.485  34.407  52.306  0.00  0.00    -0.117 A 
ATOM     16  C   UNL d   1      49.471  34.317  51.336  0.00  0.00     0.006 A 
ATOM     17  C   UNL d   1      50.327  34.312  51.905  0.00  0.00    -0.006 A 
ATOM     18  C   UNL d   1      51.091  34.204  52.095  0.00  0.00    -0.007 A 
ENDBRANCH   1   9
BRANCH   3  19
ATOM     19  C   UNL d   1      53.932  31.826  53.362  0.00  0.00     0.080 C 
BRANCH  19  20
ATOM     20  C   UNL d   1      53.676  31.060  53.497  0.00  0.00     0.020 A 
ATOM     21  C   UNL d   1      53.707  30.725  54.253  0.00  0.00     0.028 A 
ATOM     22  C   UNL d   1      53.448  29.949  54.393  0.00  0.00     0.119 A 
ATOM     23  O   UNL d   1      53.430  29.520  55.079  0.00  0.00    -0.300 OA
ATOM     24  C   UNL d   1      53.149  29.486  53.771  0.00  0.00     0.119 A 
ATOM     25  C   UNL d   1      53.110  28.748  54.913  0.00  0.00     0.304 A 
ATOM     26  O   UNL d   1      52.945  28.755  54.098  0.00  0.00    -0.300 OA
ATOM     27  C   UNL d   1      53.115  29.820  53.001  0.00  0.00     0.026 A 
ATOM     28  C   UNL d   1      53.374  30.594  52.868  0.00  0.00     0.004 A 
ENDBRANCH  19  20
ENDBRANCH   3  19
TORSDOF 3
ENDMDL
MODEL 2
REMARK VINA RESULT:     -10.6      1.268      5.038
REMARK  3 active torsions:
REMARK  status: ('A' for Active; 'I' for Inactive)
REMARK    1  A    between atoms: C_2  and  C_1 
REMARK       I    between atoms: N_3  and  C_2 
REMARK    2  A    between atoms: C_21  and  N_4 
REMARK    3  A    between atoms: C_20  and  C_21 
ROOT
ATOM      1  C   UNL d   1      53.639  31.988  53.667  0.00  0.00     0.255 C 
ATOM      2  N   UNL d   1      53.163  32.634  53.403  0.00  0.00    -0.271 N 
ATOM      3  N   UNL d   1      52.243  33.911  52.894  0.00  0.00    -0.300 N 
ATOM      4  O   UNL d   1      54.296  32.131  54.033  0.00  0.00    -0.270 OA
ATOM      5  C   UNL d   1      53.401  33.408  53.537  0.00  0.00     0.102 A 
ATOM      6  C   UNL d   1      52.454  32.492  53.008  0.00  0.00     0.102 A 
ATOM      7  C   UNL d   1      51.983  33.130  52.747  0.00  0.00     0.100 A 
ATOM      8  C   UNL d   1      52.958  34.052  53.292  0.00  0.00     0.100 A 
ENDROOT
BRANCH   1   9
ATOM      9  C   UNL d   1      53.399  31.232  53.531  0.00  0.00     0.137 A 
ATOM     10  C   UNL d   1      53.653  30.864  54.214  0.00  0.00     0.033 A 
ATOM     11  C   UNL d   1      53.561  30.066  54.398  0.00  0.00     0.046 A 
ATOM     12  C   UNL d   1      53.271  29.379  54.129  0.00  0.00    -0.015 A 
ATOM     13  C   UNL d   1      53.212  29.588  53.913  0.00  0.00    -0.022 A 
ATOM     14  C   UNL d   1      52.966  29.500  53.456  0.00  0.00     0.027 A 
ATOM     15  C   UNL d   1      53.098  30.289  53.358  0.00  0.00    -0.117 A 
ATOM     16  C   UNL d   1      52.575  29.081  52.861  0.00  0.00     0.006 A 
ATOM     17  C   UNL d   1      52.892  30.039  53.057  0.00  0.00    -0.006 A 
ATOM     18  C   UNL d   1      53.016  30.816  52.948  0.00  0.00    -0.007 A 
ENDBRANCH   1   9
BRANCH   3  19
ATOM     19  C   UNL d   1      51.925  34.516  52.718  0.00  0.00     0.080 C 
BRANCH  19  20
ATOM     20  C   UNL d   1      51.133  34.513  52.510  0.00  0.00     0.020 A 
ATOM     21  C   UNL d   1      50.898  34.433  51.720  0.00  0.00     0.028 A 
ATOM     22  C   UNL d   1      50.096  34.429  51.506  0.00  0.00     0.119 A 
ATOM     23  O   UNL d   1      49.750  34.358  50.778  0.00  0.00    -0.300 OA
ATOM     24  C   UNL d   1      49.505  34.506  52.085  0.00  0.00     0.119 A 
ATOM     25  C   UNL d   1      48.904  34.389  50.870  0.00  0.00     0.304 A 
ATOM     26  O   UNL d   1      48.780  34.481  51.688  0.00  0.00    -0.300 OA
ATOM     27  C   UNL d   1      49.737  34.588  52.888  0.00  0.00     0.026 A 
ATOM     28  C   UNL d   1      50.537  34.591  53.096  0.00  0.00     0.004 A 
ENDBRANCH  19  20
ENDBRANCH   3  19
TORSDOF 3
ENDMDL
MODEL 3
REMARK VINA RESULT:      -9.4      1.724      5.255
REMARK  3 active torsions:
REMARK  status: ('A' for Active; 'I' for Inactive)
REMARK    1  A    between atoms: C_2  and  C_1 
REMARK       I    between atoms: N_3  and  C_2 
REMARK    2  A    between atoms: C_21  and  N_4 
REMARK    3  A    between atoms: C_20  and  C_21 
ROOT
ATOM      1  C   UNL d   1      53.207  32.460  53.635  0.00  0.00     0.255 C 
ATOM      2  N   UNL d   1      52.633  32.897  53.196  0.00  0.00    -0.271 N 
ATOM      3  N   UNL d   1      51.499  33.735  52.331  0.00  0.00    -0.300 N 
ATOM      4  O   UNL d   1      53.154  31.697  53.667  0.00  0.00    -0.270 OA
ATOM      5  C   UNL d   1      52.023  32.508  52.806  0.00  0.00     0.102 A 
ATOM      6  C   UNL d   1      52.679  33.718  53.155  0.00  0.00     0.102 A 
ATOM      7  C   UNL d   1      52.111  34.150  52.720  0.00  0.00     0.100 A 
ATOM      8  C   UNL d   1      51.454  32.907  52.373  0.00  0.00     0.100 A 
ENDROOT
BRANCH   1   9
ATOM      9  C   UNL d   1      53.801  32.849  54.015  0.00  0.00     0.137 A 
ATOM     10  C   UNL d   1      53.670  32.616  54.786  0.00  0.00     0.033 A 
ATOM     11  C   UNL d   1      54.114  32.842  55.442  0.00  0.00     0.046 A 
ATOM     12  C   UNL d   1      54.735  33.277  55.674  0.00  0.00    -0.015 A 
ATOM     13  C   UNL d   1      54.713  33.313  55.370  0.00  0.00    -0.022 A 
ATOM     14  C   UNL d   1      55.029  33.607  55.069  0.00  0.00     0.027 A 
ATOM     15  C   UNL d   1      54.543  33.336  54.485  0.00  0.00    -0.117 A 
ATOM     16  C   UNL d   1      55.649  34.115  54.873  0.00  0.00     0.006 A 
ATOM     17  C   UNL d   1      54.883  33.609  54.410  0.00  0.00    -0.006 A 
ATOM     18  C   UNL d   1      54.412  33.349  53.825  0.00  0.00    -0.007 A 
ENDBRANCH   1   9
BRANCH   3  19
ATOM     19  C   UNL d   1      50.973  34.000  51.940  0.00  0.00     0.080 C 
BRANCH  19  20
ATOM     20  C   UNL d   1      50.362  34.405  52.304  0.00  0.00     0.020 A 
ATOM     21  C   UNL d   1      49.680  34.618  51.884  0.00  0.00     0.028 A 
ATOM     22  C   UNL d   1      49.058  35.028  52.250  0.00  0.00     0.119 A 
ATOM     23  O   UNL d   1      48.354  35.286  51.948  0.00  0.00    -0.300 OA
ATOM     24  C   UNL d   1      49.106  35.237  53.054  0.00  0.00     0.119 A 
ATOM     25  C   UNL d   1      47.916  35.679  52.565  0.00  0.00     0.304 A 
ATOM     26  O   UNL d   1      48.404  35.633  53.236  0.00  0.00    -0.300 OA
ATOM     27  C   UNL d   1      49.794  35.024  53.485  0.00  0.00     0.026 A 
ATOM     28  C   UNL d   1      50.411  34.615  53.115  0.00  0.00     0.004 A 
ENDBRANCH  19  20
ENDBRANCH   3  19
TORSDOF 3
ENDMDL
MODEL 4
REMARK VINA RESULT:      -9.3      2.429      3.896
REMARK  3 active torsions:
REMARK  status: ('A' for Active; 'I' for Inactive)
REMARK    1  A    between atoms: C_2  and  C_1 
REMARK       I    between atoms: N_3  and  C_2 
REMARK    2  A    between atoms: C_21  and  N_4 
REMARK    3  A    between atoms: C_20  and  C_21 
ROOT
ATOM      1  C   UNL d   1      48.691  35.199  52.050  0.00  0.00     0.255 C 
ATOM      2  N   UNL d   1      49.421  34.811  52.226  0.00  0.00    -0.271 N 
ATOM      3  N   UNL d   1      50.851  34.047  52.551  0.00  0.00    -0.300 N 
ATOM      4  O   UNL d   1      48.408  35.161  51.340  0.00  0.00    -0.270 OA
ATOM      5  C   UNL d   1      49.824  34.398  51.642  0.00  0.00     0.102 A 
ATOM      6  C   UNL d   1      49.735  34.845  52.987  0.00  0.00     0.102 A 
ATOM      7  C   UNL d   1      50.457  34.462  53.160  0.00  0.00     0.100 A 
ATOM      8  C   UNL d   1      50.532  34.015  51.785  0.00  0.00     0.100 A 
ENDROOT
BRANCH   1   9
ATOM      9  C   UNL d   1      48.302  35.601  52.629  0.00  0.00     0.137 A 
ATOM     10  C   UNL d   1      47.665  35.895  52.211  0.00  0.00     0.033 A 
ATOM     11  C   UNL d   1      47.060  36.363  52.517  0.00  0.00     0.046 A 
ATOM     12  C   UNL d   1      46.793  36.709  53.178  0.00  0.00    -0.015 A 
ATOM     13  C   UNL d   1      47.052  36.565  53.255  0.00  0.00    -0.022 A 
ATOM     14  C   UNL d   1      47.270  36.554  53.734  0.00  0.00     0.027 A 
ATOM     15  C   UNL d   1      47.820  36.103  53.354  0.00  0.00    -0.117 A 
ATOM     16  C   UNL d   1      47.366  36.709  54.539  0.00  0.00     0.006 A 
ATOM     17  C   UNL d   1      47.844  36.202  53.783  0.00  0.00    -0.006 A 
ATOM     18  C   UNL d   1      48.393  35.756  53.421  0.00  0.00    -0.007 A 
ENDBRANCH   1   9
BRANCH   3  19
ATOM     19  C   UNL d   1      51.461  33.692  52.590  0.00  0.00     0.080 C 
BRANCH  19  20
ATOM     20  C   UNL d   1      52.053  33.955  53.091  0.00  0.00     0.020 A 
ATOM     21  C   UNL d   1      52.330  33.482  53.711  0.00  0.00     0.028 A 
ATOM     22  C   UNL d   1      52.930  33.745  54.220  0.00  0.00     0.119 A 
ATOM     23  O   UNL d   1      53.278  33.379  54.852  0.00  0.00    -0.300 OA
ATOM     24  C   UNL d   1      53.269  34.498  54.119  0.00  0.00     0.119 A 
ATOM     25  C   UNL d   1      53.867  33.897  55.184  0.00  0.00     0.304 A 
ATOM     26  O   UNL d   1      53.840  34.582  54.711  0.00  0.00    -0.300 OA
ATOM     27  C   UNL d   1      52.992  34.983  53.492  0.00  0.00     0.026 A 
ATOM     28  C   UNL d   1      52.394  34.715  52.987  0.00  0.00     0.004 A 
ENDBRANCH  19  20
ENDBRANCH   3  19
TORSDOF 3
ENDMDL
MODEL 5
REMARK VINA RESULT:      -9.1      3.456      6.600
REMARK  3 active torsions:
REMARK  status: ('A' for Active; 'I' for Inactive)
REMARK    1  A    between atoms: C_2  and  C_1 
REMARK       I    between atoms: N_3  and  C_2 
REMARK    2  A    between atoms: C_21  and  N_4 
REMARK    3  A    between atoms: C_20  and  C_21 
ROOT
ATOM      1  C   UNL d   1      49.325  34.661  51.775  0.00  0.00     0.255 C 
ATOM      2  N   UNL d   1      48.718  35.154  52.094  0.00  0.00    -0.271 N 
ATOM      3  N   UNL d   1      47.520  36.118  52.704  0.00  0.00    -0.300 N 
ATOM      4  O   UNL d   1      49.261  34.404  51.057  0.00  0.00    -0.270 OA
ATOM      5  C   UNL d   1      48.064  35.357  51.641  0.00  0.00     0.102 A 
ATOM      6  C   UNL d   1      48.777  35.437  52.866  0.00  0.00     0.102 A 
ATOM      7  C   UNL d   1      48.177  35.924  53.182  0.00  0.00     0.100 A 
ATOM      8  C   UNL d   1      47.462  35.832  51.926  0.00  0.00     0.100 A 
ENDROOT
BRANCH   1   9
ATOM      9  C   UNL d   1      49.963  34.468  52.227  0.00  0.00     0.137 A 
ATOM     10  C   UNL d   1      50.542  34.397  51.655  0.00  0.00     0.033 A 
ATOM     11  C   UNL d   1      51.331  34.204  51.787  0.00  0.00     0.046 A 
ATOM     12  C   UNL d   1      51.859  34.023  52.350  0.00  0.00    -0.015 A 
ATOM     13  C   UNL d   1      51.592  34.069  52.493  0.00  0.00    -0.022 A 
ATOM     14  C   UNL d   1      51.508  34.032  53.011  0.00  0.00     0.027 A 
ATOM     15  C   UNL d   1      50.756  34.227  52.794  0.00  0.00    -0.117 A 
ATOM     16  C   UNL d   1      51.675  33.909  53.810  0.00  0.00     0.006 A 
ATOM     17  C   UNL d   1      50.876  34.155  53.213  0.00  0.00    -0.006 A 
ATOM     18  C   UNL d   1      50.131  34.346  53.012  0.00  0.00    -0.007 A 
ENDBRANCH   1   9
BRANCH   3  19
ATOM     19  C   UNL d   1      46.962  36.519  52.871  0.00  0.00     0.080 C 
BRANCH  19  20
ATOM     20  C   UNL d   1      46.475  36.298  53.491  0.00  0.00     0.020 A 
ATOM     21  C   UNL d   1      45.834  35.789  53.370  0.00  0.00     0.028 A 
ATOM     22  C   UNL d   1      45.338  35.563  53.996  0.00  0.00     0.119 A 
ATOM     23  O   UNL d   1      44.690  35.078  54.001  0.00  0.00    -0.300 OA
ATOM     24  C   UNL d   1      45.475  35.845  54.765  0.00  0.00     0.119 A 
ATOM     25  C   UNL d   1      44.384  35.033  54.794  0.00  0.00     0.304 A 
ATOM     26  O   UNL d   1      44.888  35.517  55.246  0.00  0.00    -0.300 OA
ATOM     27  C   UNL d   1      46.124  36.362  54.895  0.00  0.00     0.026 A 
ATOM     28  C   UNL d   1      46.615  36.584  54.267  0.00  0.00     0.004 A 
ENDBRANCH  19  20
ENDBRANCH   3  19
TORSDOF 3
ENDMDL
