MODEL 1
REMARK VINA RESULT:      -5.5      0.000      0.000
REMARK  3 active torsions:
REMARK  status: ('A' for Active; 'I' for Inactive)
REMARK    1  A    between atoms: N_6  and  S_1 
REMARK    2  A    between atoms: C_7  and  S_1 
REMARK    3  A    between atoms: C_10  and  N_6 
ROOT
ATOM      1  S   UNL d   1     -41.856-123.041 -51.739  0.00  0.00     0.327 S 
ATOM      2  O   UNL d   1     -41.917-123.783 -51.391  0.00  0.00    -0.186 OA
ATOM      3  O   UNL d   1     -41.942-122.364 -51.280  0.00  0.00    -0.186 OA
ENDROOT
BRANCH   1   4
ATOM      4  N   UNL d   1     -42.003-123.115 -50.934  0.00  0.00    -0.317 NA
BRANCH   4   5
ATOM      5  C   UNL d   1     -42.152-123.190 -50.111  0.00  0.00     0.145 A 
ATOM      6  C   UNL d   1     -41.557-122.986 -49.569  0.00  0.00     0.033 A 
ATOM      7  C   UNL d   1     -41.707-123.061 -48.757  0.00  0.00     0.003 A 
ATOM      8  C   UNL d   1     -41.125-122.862 -48.210  0.00  0.00     0.000 C 
ATOM      9  C   UNL d   1     -42.443-123.337 -48.497  0.00  0.00     0.000 A 
ATOM     10  C   UNL d   1     -43.025-123.537 -49.044  0.00  0.00     0.003 A 
ATOM     11  C   UNL d   1     -42.876-123.462 -49.852  0.00  0.00     0.033 A 
ATOM     12  C   UNL d   1     -43.755-123.811 -48.789  0.00  0.00     0.000 C 
ENDBRANCH   4   5
ENDBRANCH   1   4
BRANCH   1  13
ATOM     13  C   UNL d   1     -41.710-122.977 -52.543  0.00  0.00     0.118 A 
ATOM     14  C   UNL d   1     -41.994-122.330 -52.961  0.00  0.00     0.035 A 
ATOM     15  C   UNL d   1     -41.849-122.261 -53.774  0.00  0.00     0.105 A 
ATOM     16  N   UNL d   1     -42.057-121.689 -54.330  0.00  0.00    -0.189 NA
ATOM     17  C   UNL d   1     -41.412-122.851 -54.167  0.00  0.00     0.104 A 
ATOM     18  C   UNL d   1     -41.752-121.920 -55.070  0.00  0.00     0.369 A 
ATOM     19  O   UNL d   1     -41.832-121.508 -55.778  0.00  0.00    -0.242 OA
ATOM     20  N   UNL d   1     -41.356-122.638 -54.961  0.00  0.00    -0.189 NA
ATOM     21  C   UNL d   1     -41.127-123.503 -53.741  0.00  0.00     0.022 A 
ATOM     22  C   UNL d   1     -41.278-123.561 -52.932  0.00  0.00     0.016 A 
ENDBRANCH   1  13
TORSDOF 3
ENDMDL
MODEL 2
REMARK VINA RESULT:      -5.3      1.368      4.867
REMARK  3 active torsions:
REMARK  status: ('A' for Active; 'I' for Inactive)
REMARK    1  A    between atoms: N_6  and  S_1 
REMARK    2  A    between atoms: C_7  and  S_1 
REMARK    3  A    between atoms: C_10  and  N_6 
ROOT
ATOM      1  S   UNL d   1     -41.687-122.940 -51.691  0.00  0.00     0.327 S 
ATOM      2  O   UNL d   1     -42.094-123.460 -52.180  0.00  0.00    -0.186 OA
ATOM      3  O   UNL d   1     -41.275-122.306 -52.016  0.00  0.00    -0.186 OA
ENDROOT
BRANCH   1   4
ATOM      4  N   UNL d   1     -41.688-122.834 -52.505  0.00  0.00    -0.317 NA
BRANCH   4   5
ATOM      5  C   UNL d   1     -41.688-122.726 -53.338  0.00  0.00     0.145 A 
ATOM      6  C   UNL d   1     -41.402-123.333 -53.828  0.00  0.00     0.033 A 
ATOM      7  C   UNL d   1     -41.404-123.224 -54.649  0.00  0.00     0.003 A 
ATOM      8  C   UNL d   1     -41.123-123.817 -55.145  0.00  0.00     0.000 C 
ATOM      9  C   UNL d   1     -41.689-122.516 -54.972  0.00  0.00     0.000 A 
ATOM     10  C   UNL d   1     -41.970-121.921 -54.477  0.00  0.00     0.003 A 
ATOM     11  C   UNL d   1     -41.968-122.030 -53.659  0.00  0.00     0.033 A 
ATOM     12  C   UNL d   1     -42.253-121.219 -54.792  0.00  0.00     0.000 C 
ENDBRANCH   4   5
ENDBRANCH   1   4
BRANCH   1  13
ATOM     13  C   UNL d   1     -41.692-123.054 -50.879  0.00  0.00     0.118 A 
ATOM     14  C   UNL d   1     -42.265-122.689 -50.418  0.00  0.00     0.035 A 
ATOM     15  C   UNL d   1     -42.274-122.801 -49.596  0.00  0.00     0.105 A 
ATOM     16  N   UNL d   1     -42.768-122.515 -49.001  0.00  0.00    -0.189 NA
ATOM     17  C   UNL d   1     -41.699-123.286 -49.240  0.00  0.00     0.104 A 
ATOM     18  C   UNL d   1     -42.503-122.820 -48.273  0.00  0.00     0.369 A 
ATOM     19  O   UNL d   1     -42.838-122.674 -47.535  0.00  0.00    -0.242 OA
ATOM     20  N   UNL d   1     -41.844-123.294 -48.428  0.00  0.00    -0.189 NA
ATOM     21  C   UNL d   1     -41.123-123.652 -49.709  0.00  0.00     0.022 A 
ATOM     22  C   UNL d   1     -41.123-123.533 -50.526  0.00  0.00     0.016 A 
ENDBRANCH   1  13
TORSDOF 3
ENDMDL
