MODEL 1
REMARK VINA RESULT:       0.6      0.000      0.000
REMARK  5 active torsions:
REMARK  status: ('A' for Active; 'I' for Inactive)
REMARK    1  A    between atoms: C_10  and  N_4 
REMARK    2  A    between atoms: C_12  and  C_10 
REMARK    3  A    between atoms: N_13  and  C_12 
REMARK    4  A    between atoms: C_19  and  N_13 
REMARK    5  A    between atoms: C_20  and  N_13 
ROOT
ATOM      1  C   UNL d   1     -42.194-122.872 -51.099  0.00  0.00     0.102 A 
ATOM      2  N   UNL d   1     -42.267-123.255 -51.818  0.00  0.00    -0.163 NA
ATOM      3  C   UNL d   1     -41.825-122.137 -51.046  0.00  0.00     0.024 A 
ATOM      4  N   UNL d   1     -41.801-122.623 -52.634  0.00  0.00    -0.192 N 
ATOM      5  C   UNL d   1     -41.471-121.907 -52.417  0.00  0.00     0.280 A 
ATOM      6  C   UNL d   1     -41.483-121.664 -51.621  0.00  0.00     0.059 A 
ATOM      7  C   UNL d   1     -41.836-121.897 -50.263  0.00  0.00     0.002 A 
ATOM      8  C   UNL d   1     -42.433-123.084 -50.338  0.00  0.00     0.019 A 
ATOM      9  C   UNL d   1     -42.212-122.481 -49.821  0.00  0.00     0.002 A 
ATOM     10  O   UNL d   1     -41.123-121.423 -52.995  0.00  0.00    -0.265 OA
ATOM     11  C   UNL d   1     -41.146-120.936 -51.403  0.00  0.00     0.005 A 
ATOM     12  C   UNL d   1     -41.506-121.180 -50.041  0.00  0.00     0.000 A 
ATOM     13  C   UNL d   1     -42.825-123.750 -50.048  0.00  0.00     0.002 A 
ATOM     14  C   UNL d   1     -42.385-122.548 -49.015  0.00  0.00     0.000 A 
ATOM     15  C   UNL d   1     -41.158-120.696 -50.620  0.00  0.00     0.000 A 
ATOM     16  C   UNL d   1     -42.998-123.816 -49.244  0.00  0.00     0.000 A 
ATOM     17  C   UNL d   1     -42.777-123.213 -48.725  0.00  0.00     0.000 A 
ENDROOT
BRANCH   4  18
ATOM     18  C   UNL d   1     -41.700-122.700 -53.453  0.00  0.00     0.123 C 
BRANCH  18  19
ATOM     19  C   UNL d   1     -42.361-122.797 -53.945  0.00  0.00     0.101 C 
BRANCH  19  20
ATOM     20  N   UNL d   1     -42.262-122.853 -54.766  0.00  0.00    -0.301 N 
BRANCH  20  21
ATOM     21  C   UNL d   1     -42.142-123.582 -55.122  0.00  0.00     0.080 C 
ATOM     22  C   UNL d   1     -41.404-123.779 -55.435  0.00  0.00     0.021 C 
ENDBRANCH  20  21
BRANCH  20  23
ATOM     23  C   UNL d   1     -42.284-122.165 -55.225  0.00  0.00     0.080 C 
ATOM     24  C   UNL d   1     -42.907-122.044 -55.749  0.00  0.00     0.021 C 
ENDBRANCH  20  23
ENDBRANCH  19  20
ENDBRANCH  18  19
ENDBRANCH   4  18
TORSDOF 5
ENDMDL
MODEL 2
REMARK VINA RESULT:       1.8      1.245      4.654
REMARK  5 active torsions:
REMARK  status: ('A' for Active; 'I' for Inactive)
REMARK    1  A    between atoms: C_10  and  N_4 
REMARK    2  A    between atoms: C_12  and  C_10 
REMARK    3  A    between atoms: N_13  and  C_12 
REMARK    4  A    between atoms: C_19  and  N_13 
REMARK    5  A    between atoms: C_20  and  N_13 
ROOT
ATOM      1  C   UNL d   1     -42.023-121.801 -53.258  0.00  0.00     0.102 A 
ATOM      2  N   UNL d   1     -42.097-121.639 -52.459  0.00  0.00    -0.163 NA
ATOM      3  C   UNL d   1     -41.704-122.515 -53.518  0.00  0.00     0.024 A 
ATOM      4  N   UNL d   1     -41.708-122.515 -51.857  0.00  0.00    -0.192 N 
ATOM      5  C   UNL d   1     -41.420-123.160 -52.268  0.00  0.00     0.280 A 
ATOM      6  C   UNL d   1     -41.418-123.160 -53.100  0.00  0.00     0.059 A 
ATOM      7  C   UNL d   1     -41.702-122.516 -54.337  0.00  0.00     0.002 A 
ATOM      8  C   UNL d   1     -42.218-121.359 -53.927  0.00  0.00     0.019 A 
ATOM      9  C   UNL d   1     -42.020-121.801 -54.595  0.00  0.00     0.002 A 
ATOM     10  O   UNL d   1     -41.129-123.817 -51.851  0.00  0.00    -0.265 OA
ATOM     11  C   UNL d   1     -41.125-123.817 -53.516  0.00  0.00     0.005 A 
ATOM     12  C   UNL d   1     -41.414-123.161 -54.753  0.00  0.00     0.000 A 
ATOM     13  C   UNL d   1     -42.551-120.610 -54.016  0.00  0.00     0.002 A 
ATOM     14  C   UNL d   1     -42.157-121.490 -55.348  0.00  0.00     0.000 A 
ATOM     15  C   UNL d   1     -41.123-123.817 -54.335  0.00  0.00     0.000 A 
ATOM     16  C   UNL d   1     -42.688-120.299 -54.769  0.00  0.00     0.000 A 
ATOM     17  C   UNL d   1     -42.490-120.741 -55.437  0.00  0.00     0.000 A 
ENDROOT
BRANCH   4  18
ATOM     18  C   UNL d   1     -41.633-122.687 -51.049  0.00  0.00     0.123 C 
BRANCH  18  19
ATOM     19  C   UNL d   1     -42.043-122.233 -50.488  0.00  0.00     0.101 C 
BRANCH  19  20
ATOM     20  N   UNL d   1     -42.156-122.525 -49.721  0.00  0.00    -0.301 N 
BRANCH  20  21
ATOM     21  C   UNL d   1     -42.912-122.646 -49.429  0.00  0.00     0.080 C 
ATOM     22  C   UNL d   1     -43.180-123.408 -49.262  0.00  0.00     0.021 C 
ENDBRANCH  20  21
BRANCH  20  23
ATOM     23  C   UNL d   1     -41.497-122.694 -49.250  0.00  0.00     0.080 C 
ATOM     24  C   UNL d   1     -41.523-122.546 -48.441  0.00  0.00     0.021 C 
ENDBRANCH  20  23
ENDBRANCH  19  20
ENDBRANCH  18  19
ENDBRANCH   4  18
TORSDOF 5
ENDMDL
