MODEL 1
REMARK VINA RESULT:      -6.6      0.000      0.000
REMARK  3 active torsions:
REMARK  status: ('A' for Active; 'I' for Inactive)
REMARK    1  A    between atoms: C_6  and  C_1 
REMARK    2  A    between atoms: N_7  and  C_2 
REMARK    3  A    between atoms: C_9  and  C_5 
REMARK       I    between atoms: N_8  and  C_6 
ROOT
ATOM      1  C   UNL d   1     -48.385  13.192  22.307  0.00  0.00     0.106 A 
ATOM      2  C   UNL d   1     -46.980  12.994  22.386  0.00  0.00     0.180 A 
ATOM      3  N   UNL d   1     -47.125  13.774  22.545  0.00  0.00    -0.222 NA
ATOM      4  S   UNL d   1     -47.698  12.639  22.245  0.00  0.00    -0.044 SA
ATOM      5  C   UNL d   1     -47.919  13.902  22.504  0.00  0.00     0.094 A 
ENDROOT
BRANCH   1   6
ATOM      6  C   UNL d   1     -49.159  12.929  22.182  0.00  0.00     0.272 C 
ATOM      7  N   UNL d   1     -49.526  12.426  22.738  0.00  0.00    -0.272 N 
ATOM      8  C   UNL d   1     -49.499  11.997  23.454  0.00  0.00     0.083 A 
ATOM      9  C   UNL d   1     -50.205  12.415  22.271  0.00  0.00     0.083 A 
ATOM     10  C   UNL d   1     -50.154  11.559  23.698  0.00  0.00     0.019 A 
ATOM     11  C   UNL d   1     -50.845  11.544  23.229  0.00  0.00     0.003 A 
ATOM     12  C   UNL d   1     -50.869  11.971  22.518  0.00  0.00     0.019 A 
ATOM     13  O   UNL d   1     -49.578  13.159  21.508  0.00  0.00    -0.266 OA
ENDBRANCH   1   6
BRANCH   5  14
ATOM     14  C   UNL d   1     -48.394  14.559  22.607  0.00  0.00     0.018 A 
ATOM     15  C   UNL d   1     -48.629  14.999  21.982  0.00  0.00     0.002 A 
ATOM     16  C   UNL d   1     -49.089  15.635  22.085  0.00  0.00     0.000 A 
ATOM     17  C   UNL d   1     -49.325  15.845  22.820  0.00  0.00     0.000 A 
ATOM     18  C   UNL d   1     -49.099  15.415  23.462  0.00  0.00     0.000 A 
ATOM     19  C   UNL d   1     -48.632  14.772  23.346  0.00  0.00     0.002 A 
ENDBRANCH   5  14
BRANCH   2  20
ATOM     20  N   UNL d   1     -46.201  12.848  22.422  0.00  0.00    -0.280 N 
ATOM     21  C   UNL d   1     -45.664  13.347  22.033  0.00  0.00     0.109 A 
ATOM     22  C   UNL d   1     -44.857  13.195  22.070  0.00  0.00     0.142 A 
ATOM     23  O   UNL d   1     -44.579  12.543  22.496  0.00  0.00    -0.300 OA
ATOM     24  C   UNL d   1     -45.112  12.038  22.889  0.00  0.00     0.142 A 
ATOM     25  C   UNL d   1     -45.923  12.191  22.852  0.00  0.00     0.109 A 
ENDBRANCH   2  20
TORSDOF 3
ENDMDL
MODEL 2
REMARK VINA RESULT:      -6.1      1.248      2.622
REMARK  3 active torsions:
REMARK  status: ('A' for Active; 'I' for Inactive)
REMARK    1  A    between atoms: C_6  and  C_1 
REMARK    2  A    between atoms: N_7  and  C_2 
REMARK    3  A    between atoms: C_9  and  C_5 
REMARK       I    between atoms: N_8  and  C_6 
ROOT
ATOM      1  C   UNL d   1     -48.899  13.087  23.012  0.00  0.00     0.106 A 
ATOM      2  C   UNL d   1     -47.599  12.516  23.080  0.00  0.00     0.180 A 
ATOM      3  N   UNL d   1     -47.953  12.237  22.408  0.00  0.00    -0.222 NA
ATOM      4  S   UNL d   1     -48.131  13.011  23.445  0.00  0.00    -0.044 SA
ATOM      5  C   UNL d   1     -48.692  12.553  22.355  0.00  0.00     0.094 A 
ENDROOT
BRANCH   1   6
ATOM      6  C   UNL d   1     -49.507  13.567  23.301  0.00  0.00     0.272 C 
ATOM      7  N   UNL d   1     -49.475  14.394  23.193  0.00  0.00    -0.272 N 
ATOM      8  C   UNL d   1     -49.083  15.071  22.900  0.00  0.00     0.083 A 
ATOM      9  C   UNL d   1     -50.195  14.468  23.588  0.00  0.00     0.083 A 
ATOM     10  C   UNL d   1     -49.416  15.819  23.005  0.00  0.00     0.019 A 
ATOM     11  C   UNL d   1     -50.145  15.900  23.405  0.00  0.00     0.003 A 
ATOM     12  C   UNL d   1     -50.532  15.225  23.695  0.00  0.00     0.019 A 
ATOM     13  O   UNL d   1     -50.152  13.237  23.698  0.00  0.00    -0.266 OA
ENDBRANCH   1   6
BRANCH   5  14
ATOM     14  C   UNL d   1     -49.302  12.483  21.815  0.00  0.00     0.018 A 
ATOM     15  C   UNL d   1     -49.915  11.987  21.949  0.00  0.00     0.002 A 
ATOM     16  C   UNL d   1     -50.503  11.922  21.425  0.00  0.00     0.000 A 
ATOM     17  C   UNL d   1     -50.492  12.354  20.752  0.00  0.00     0.000 A 
ATOM     18  C   UNL d   1     -49.884  12.859  20.599  0.00  0.00     0.000 A 
ATOM     19  C   UNL d   1     -49.292  12.917  21.138  0.00  0.00     0.002 A 
ENDBRANCH   5  14
BRANCH   2  20
ATOM     20  N   UNL d   1     -46.868  12.216  23.149  0.00  0.00    -0.280 N 
ATOM     21  C   UNL d   1     -46.230  12.572  22.755  0.00  0.00     0.109 A 
ATOM     22  C   UNL d   1     -45.474  12.262  22.827  0.00  0.00     0.142 A 
ATOM     23  O   UNL d   1     -45.346  11.591  23.294  0.00  0.00    -0.300 OA
ATOM     24  C   UNL d   1     -45.981  11.228  23.692  0.00  0.00     0.142 A 
ATOM     25  C   UNL d   1     -46.742  11.541  23.620  0.00  0.00     0.109 A 
ENDBRANCH   2  20
TORSDOF 3
ENDMDL
MODEL 3
REMARK VINA RESULT:      -4.8      1.096      1.434
REMARK  3 active torsions:
REMARK  status: ('A' for Active; 'I' for Inactive)
REMARK    1  A    between atoms: C_6  and  C_1 
REMARK    2  A    between atoms: N_7  and  C_2 
REMARK    3  A    between atoms: C_9  and  C_5 
REMARK       I    between atoms: N_8  and  C_6 
ROOT
ATOM      1  C   UNL d   1     -48.283  13.012  23.002  0.00  0.00     0.106 A 
ATOM      2  C   UNL d   1     -47.046  12.326  23.127  0.00  0.00     0.180 A 
ATOM      3  N   UNL d   1     -46.881  13.083  22.894  0.00  0.00    -0.222 NA
ATOM      4  S   UNL d   1     -47.853  12.263  23.195  0.00  0.00    -0.044 SA
ATOM      5  C   UNL d   1     -47.574  13.485  22.819  0.00  0.00     0.094 A 
ENDROOT
BRANCH   1   6
ATOM      6  C   UNL d   1     -49.108  13.054  23.040  0.00  0.00     0.272 C 
ATOM      7  N   UNL d   1     -49.573  12.741  22.422  0.00  0.00    -0.272 N 
ATOM      8  C   UNL d   1     -49.630  12.354  21.684  0.00  0.00     0.083 A 
ATOM      9  C   UNL d   1     -50.254  12.971  22.825  0.00  0.00     0.083 A 
ATOM     10  C   UNL d   1     -50.370  12.200  21.354  0.00  0.00     0.019 A 
ATOM     11  C   UNL d   1     -51.064  12.431  21.758  0.00  0.00     0.003 A 
ATOM     12  C   UNL d   1     -51.005  12.815  22.491  0.00  0.00     0.019 A 
ATOM     13  O   UNL d   1     -49.482  13.405  23.688  0.00  0.00    -0.266 OA
ENDBRANCH   1   6
BRANCH   5  14
ATOM     14  C   UNL d   1     -47.766  14.251  22.605  0.00  0.00     0.018 A 
ATOM     15  C   UNL d   1     -47.705  14.494  21.846  0.00  0.00     0.002 A 
ATOM     16  C   UNL d   1     -47.891  15.235  21.643  0.00  0.00     0.000 A 
ATOM     17  C   UNL d   1     -48.143  15.753  22.198  0.00  0.00     0.000 A 
ATOM     18  C   UNL d   1     -48.211  15.527  22.968  0.00  0.00     0.000 A 
ATOM     19  C   UNL d   1     -48.019  14.773  23.163  0.00  0.00     0.002 A 
ENDBRANCH   5  14
BRANCH   2  20
ATOM     20  N   UNL d   1     -46.373  11.912  23.207  0.00  0.00    -0.280 N 
ATOM     21  C   UNL d   1     -46.373  11.189  23.614  0.00  0.00     0.109 A 
ATOM     22  C   UNL d   1     -45.678  10.760  23.697  0.00  0.00     0.142 A 
ATOM     23  O   UNL d   1     -44.973  11.050  23.373  0.00  0.00    -0.300 OA
ATOM     24  C   UNL d   1     -44.966  11.775  22.963  0.00  0.00     0.142 A 
ATOM     25  C   UNL d   1     -45.666  12.205  22.880  0.00  0.00     0.109 A 
ENDBRANCH   2  20
TORSDOF 3
ENDMDL
MODEL 4
REMARK VINA RESULT:      -4.7      9.076     10.138
REMARK  3 active torsions:
REMARK  status: ('A' for Active; 'I' for Inactive)
REMARK    1  A    between atoms: C_6  and  C_1 
REMARK    2  A    between atoms: N_7  and  C_2 
REMARK    3  A    between atoms: C_9  and  C_5 
REMARK       I    between atoms: N_8  and  C_6 
ROOT
ATOM      1  C   UNL d   1     -39.007  14.407  18.651  0.00  0.00     0.106 A 
ATOM      2  C   UNL d   1     -38.643  13.146  18.106  0.00  0.00     0.180 A 
ATOM      3  N   UNL d   1     -39.185  13.480  17.607  0.00  0.00    -0.222 NA
ATOM      4  S   UNL d   1     -38.526  13.668  18.719  0.00  0.00    -0.044 SA
ATOM      5  C   UNL d   1     -39.402  14.197  17.902  0.00  0.00     0.094 A 
ENDROOT
BRANCH   1   6
ATOM      6  C   UNL d   1     -38.960  15.003  19.223  0.00  0.00     0.272 C 
ATOM      7  N   UNL d   1     -39.297  14.886  19.977  0.00  0.00    -0.272 N 
ATOM      8  C   UNL d   1     -39.714  14.404  20.517  0.00  0.00     0.083 A 
ATOM      9  C   UNL d   1     -39.047  15.640  20.199  0.00  0.00     0.083 A 
ATOM     10  C   UNL d   1     -39.879  14.681  21.276  0.00  0.00     0.019 A 
ATOM     11  C   UNL d   1     -39.629  15.444  21.506  0.00  0.00     0.003 A 
ATOM     12  C   UNL d   1     -39.215  15.921  20.968  0.00  0.00     0.019 A 
ATOM     13  O   UNL d   1     -38.581  15.718  19.056  0.00  0.00    -0.266 OA
ENDBRANCH   1   6
BRANCH   5  14
ATOM     14  C   UNL d   1     -39.917  14.781  17.654  0.00  0.00     0.018 A 
ATOM     15  C   UNL d   1     -39.676  15.356  17.154  0.00  0.00     0.002 A 
ATOM     16  C   UNL d   1     -40.177  15.920  16.915  0.00  0.00     0.000 A 
ATOM     17  C   UNL d   1     -40.933  15.922  17.174  0.00  0.00     0.000 A 
ATOM     18  C   UNL d   1     -41.195  15.351  17.678  0.00  0.00     0.000 A 
ATOM     19  C   UNL d   1     -40.678  14.783  17.914  0.00  0.00     0.002 A 
ENDBRANCH   5  14
BRANCH   2  20
ATOM     20  N   UNL d   1     -38.417  12.437  17.831  0.00  0.00    -0.280 N 
ATOM     21  C   UNL d   1     -38.284  12.326  17.020  0.00  0.00     0.109 A 
ATOM     22  C   UNL d   1     -38.051  11.592  16.735  0.00  0.00     0.142 A 
ATOM     23  O   UNL d   1     -37.947  10.960  17.259  0.00  0.00    -0.300 OA
ATOM     24  C   UNL d   1     -38.078  11.064  18.075  0.00  0.00     0.142 A 
ATOM     25  C   UNL d   1     -38.314  11.803  18.361  0.00  0.00     0.109 A 
ENDBRANCH   2  20
TORSDOF 3
ENDMDL
MODEL 5
REMARK VINA RESULT:      -4.3      7.022      9.585
REMARK  3 active torsions:
REMARK  status: ('A' for Active; 'I' for Inactive)
REMARK    1  A    between atoms: C_6  and  C_1 
REMARK    2  A    between atoms: N_7  and  C_2 
REMARK    3  A    between atoms: C_9  and  C_5 
REMARK       I    between atoms: N_8  and  C_6 
ROOT
ATOM      1  C   UNL d   1     -39.745  14.911  19.501  0.00  0.00     0.106 A 
ATOM      2  C   UNL d   1     -39.163  14.513  18.268  0.00  0.00     0.180 A 
ATOM      3  N   UNL d   1     -38.562  14.603  18.802  0.00  0.00    -0.222 NA
ATOM      4  S   UNL d   1     -39.857  14.687  18.653  0.00  0.00    -0.044 SA
ATOM      5  C   UNL d   1     -38.877  14.829  19.508  0.00  0.00     0.094 A 
ENDROOT
BRANCH   1   6
ATOM      6  C   UNL d   1     -40.389  15.106  19.981  0.00  0.00     0.272 C 
ATOM      7  N   UNL d   1     -40.909  14.510  20.249  0.00  0.00    -0.272 N 
ATOM      8  C   UNL d   1     -41.133  13.706  20.278  0.00  0.00     0.083 A 
ATOM      9  C   UNL d   1     -41.350  15.081  20.647  0.00  0.00     0.083 A 
ATOM     10  C   UNL d   1     -41.800  13.479  20.707  0.00  0.00     0.019 A 
ATOM     11  C   UNL d   1     -42.251  14.052  21.113  0.00  0.00     0.003 A 
ATOM     12  C   UNL d   1     -42.026  14.850  21.082  0.00  0.00     0.019 A 
ATOM     13  O   UNL d   1     -40.528  15.890  20.202  0.00  0.00    -0.266 OA
ENDBRANCH   1   6
BRANCH   5  14
ATOM     14  C   UNL d   1     -38.560  15.002  20.242  0.00  0.00     0.018 A 
ATOM     15  C   UNL d   1     -38.432  15.758  20.467  0.00  0.00     0.002 A 
ATOM     16  C   UNL d   1     -38.125  15.922  21.177  0.00  0.00     0.000 A 
ATOM     17  C   UNL d   1     -37.940  15.329  21.681  0.00  0.00     0.000 A 
ATOM     18  C   UNL d   1     -38.061  14.561  21.473  0.00  0.00     0.000 A 
ATOM     19  C   UNL d   1     -38.373  14.406  20.750  0.00  0.00     0.002 A 
ENDBRANCH   5  14
BRANCH   2  20
ATOM     20  N   UNL d   1     -38.871  14.290  17.564  0.00  0.00    -0.280 N 
ATOM     21  C   UNL d   1     -38.779  14.847  16.955  0.00  0.00     0.109 A 
ATOM     22  C   UNL d   1     -38.478  14.616  16.226  0.00  0.00     0.142 A 
ATOM     23  O   UNL d   1     -38.266  13.826  16.098  0.00  0.00    -0.300 OA
ATOM     24  C   UNL d   1     -38.356  13.263  16.705  0.00  0.00     0.142 A 
ATOM     25  C   UNL d   1     -38.659  13.495  17.438  0.00  0.00     0.109 A 
ENDBRANCH   2  20
TORSDOF 3
ENDMDL
MODEL 6
REMARK VINA RESULT:      -4.1      1.441      4.331
REMARK  3 active torsions:
REMARK  status: ('A' for Active; 'I' for Inactive)
REMARK    1  A    between atoms: C_6  and  C_1 
REMARK    2  A    between atoms: N_7  and  C_2 
REMARK    3  A    between atoms: C_9  and  C_5 
REMARK       I    between atoms: N_8  and  C_6 
ROOT
ATOM      1  C   UNL d   1     -47.280  13.185  22.973  0.00  0.00     0.106 A 
ATOM      2  C   UNL d   1     -48.313  14.159  22.912  0.00  0.00     0.180 A 
ATOM      3  N   UNL d   1     -48.665  13.431  22.926  0.00  0.00    -0.222 NA
ATOM      4  S   UNL d   1     -47.509  14.039  22.938  0.00  0.00    -0.044 SA
ATOM      5  C   UNL d   1     -48.091  12.867  22.961  0.00  0.00     0.094 A 
ENDROOT
BRANCH   1   6
ATOM      6  C   UNL d   1     -46.486  12.956  23.003  0.00  0.00     0.272 C 
ATOM      7  N   UNL d   1     -45.994  13.059  22.336  0.00  0.00    -0.272 N 
ATOM      8  C   UNL d   1     -45.890  13.312  21.547  0.00  0.00     0.083 A 
ATOM      9  C   UNL d   1     -45.364  12.735  22.757  0.00  0.00     0.083 A 
ATOM     10  C   UNL d   1     -45.152  13.239  21.184  0.00  0.00     0.019 A 
ATOM     11  C   UNL d   1     -44.510  12.911  21.606  0.00  0.00     0.003 A 
ATOM     12  C   UNL d   1     -44.617  12.661  22.390  0.00  0.00     0.019 A 
ATOM     13  O   UNL d   1     -46.169  12.624  23.689  0.00  0.00    -0.266 OA
ENDBRANCH   1   6
BRANCH   5  14
ATOM     14  C   UNL d   1     -48.099  12.050  22.987  0.00  0.00     0.018 A 
ATOM     15  C   UNL d   1     -48.332  11.620  22.355  0.00  0.00     0.002 A 
ATOM     16  C   UNL d   1     -48.338  10.830  22.384  0.00  0.00     0.000 A 
ATOM     17  C   UNL d   1     -48.111  10.450  23.050  0.00  0.00     0.000 A 
ATOM     18  C   UNL d   1     -47.873  10.865  23.697  0.00  0.00     0.000 A 
ATOM     19  C   UNL d   1     -47.870  11.667  23.657  0.00  0.00     0.002 A 
ENDBRANCH   5  14
BRANCH   2  20
ATOM     20  N   UNL d   1     -48.864  14.729  22.878  0.00  0.00    -0.280 N 
ATOM     21  C   UNL d   1     -49.118  15.107  23.572  0.00  0.00     0.109 A 
ATOM     22  C   UNL d   1     -49.688  15.697  23.536  0.00  0.00     0.142 A 
ATOM     23  O   UNL d   1     -50.010  15.917  22.807  0.00  0.00    -0.300 OA
ATOM     24  C   UNL d   1     -49.759  15.542  22.106  0.00  0.00     0.142 A 
ATOM     25  C   UNL d   1     -49.186  14.948  22.142  0.00  0.00     0.109 A 
ENDBRANCH   2  20
TORSDOF 3
ENDMDL
