MODEL 1
REMARK VINA RESULT:      -1.8      0.000      0.000
REMARK  5 active torsions:
REMARK  status: ('A' for Active; 'I' for Inactive)
REMARK    1  A    between atoms: C_5  and  N_1 
REMARK    2  A    between atoms: C_7  and  C_5 
REMARK    3  A    between atoms: O_14  and  C_10 
REMARK    4  A    between atoms: C_18  and  O_14 
REMARK    5  A    between atoms: C_19  and  C_18 
ROOT
ATOM      1  N   UNL d   1     -41.948-122.759 -53.088  0.00  0.00    -0.251 N 
ATOM      2  C   UNL d   1     -41.383-123.363 -53.027  0.00  0.00     0.378 A 
ATOM      3  C   UNL d   1     -42.038-122.569 -53.889  0.00  0.00     0.092 A 
ATOM      4  O   UNL d   1     -41.124-123.545 -53.793  0.00  0.00    -0.258 OA
ATOM      5  C   UNL d   1     -41.529-123.055 -54.324  0.00  0.00     0.121 A 
ATOM      6  O   UNL d   1     -41.123-123.719 -52.333  0.00  0.00    -0.237 OA
ATOM      7  C   UNL d   1     -42.517-122.019 -54.267  0.00  0.00     0.020 A 
ATOM      8  C   UNL d   1     -41.506-122.981 -55.149  0.00  0.00     0.026 A 
ATOM      9  C   UNL d   1     -42.491-121.949 -55.085  0.00  0.00     0.002 A 
ATOM     10  C   UNL d   1     -41.985-122.431 -55.527  0.00  0.00     0.002 A 
ATOM     11  C   UNL d   1     -42.971-121.397 -55.467  0.00  0.00     0.000 C 
ENDROOT
BRANCH   1  12
ATOM     12  C   UNL d   1     -42.369-122.386 -52.484  0.00  0.00     0.087 C 
BRANCH  12  13
ATOM     13  C   UNL d   1     -41.977-121.894 -51.944  0.00  0.00     0.041 A 
ATOM     14  C   UNL d   1     -42.052-122.023 -51.145  0.00  0.00     0.102 A 
ATOM     15  C   UNL d   1     -41.665-121.536 -50.613  0.00  0.00     0.025 A 
ATOM     16  C   UNL d   1     -41.198-120.915 -50.885  0.00  0.00     0.002 A 
ATOM     17  C   UNL d   1     -41.123-120.786 -51.697  0.00  0.00     0.000 A 
ATOM     18  C   UNL d   1     -41.516-121.280 -52.229  0.00  0.00     0.004 A 
BRANCH  14  19
ATOM     19  O   UNL d   1     -42.521-122.647 -50.865  0.00  0.00    -0.305 OA
BRANCH  19  20
ATOM     20  C   UNL d   1     -42.740-122.676 -50.070  0.00  0.00     0.123 C 
BRANCH  20  21
ATOM     21  C   UNL d   1     -43.007-123.377 -49.742  0.00  0.00     0.027 C 
ATOM     22  C   UNL d   1     -43.161-123.424 -48.931  0.00  0.00     0.002 C 
ENDBRANCH  20  21
ENDBRANCH  19  20
ENDBRANCH  14  19
ENDBRANCH  12  13
ENDBRANCH   1  12
TORSDOF 5
ENDMDL
MODEL 2
REMARK VINA RESULT:      -0.0      2.125      4.808
REMARK  5 active torsions:
REMARK  status: ('A' for Active; 'I' for Inactive)
REMARK    1  A    between atoms: C_5  and  N_1 
REMARK    2  A    between atoms: C_7  and  C_5 
REMARK    3  A    between atoms: O_14  and  C_10 
REMARK    4  A    between atoms: C_18  and  O_14 
REMARK    5  A    between atoms: C_19  and  C_18 
ROOT
ATOM      1  N   UNL d   1     -42.646-122.590 -49.699  0.00  0.00    -0.251 N 
ATOM      2  C   UNL d   1     -43.461-122.612 -49.851  0.00  0.00     0.378 A 
ATOM      3  C   UNL d   1     -42.511-122.941 -48.962  0.00  0.00     0.092 A 
ATOM      4  O   UNL d   1     -43.829-122.978 -49.205  0.00  0.00    -0.258 OA
ATOM      5  C   UNL d   1     -43.241-123.181 -48.656  0.00  0.00     0.121 A 
ATOM      6  O   UNL d   1     -43.841-122.323 -50.521  0.00  0.00    -0.237 OA
ATOM      7  C   UNL d   1     -41.818-123.069 -48.539  0.00  0.00     0.020 A 
ATOM      8  C   UNL d   1     -43.269-123.553 -47.916  0.00  0.00     0.026 A 
ATOM      9  C   UNL d   1     -41.849-123.438 -47.806  0.00  0.00     0.002 A 
ATOM     10  C   UNL d   1     -42.576-123.681 -47.494  0.00  0.00     0.002 A 
ATOM     11  C   UNL d   1     -41.154-123.567 -47.380  0.00  0.00     0.000 C 
ENDROOT
BRANCH   1  12
ATOM     12  C   UNL d   1     -42.044-122.282 -50.172  0.00  0.00     0.087 C 
BRANCH  12  13
ATOM     13  C   UNL d   1     -41.837-122.658 -50.882  0.00  0.00     0.041 A 
ATOM     14  C   UNL d   1     -41.382-122.269 -51.432  0.00  0.00     0.102 A 
ATOM     15  C   UNL d   1     -41.178-122.641 -52.132  0.00  0.00     0.025 A 
ATOM     16  C   UNL d   1     -41.433-123.409 -52.281  0.00  0.00     0.002 A 
ATOM     17  C   UNL d   1     -41.895-123.803 -51.721  0.00  0.00     0.000 A 
ATOM     18  C   UNL d   1     -42.098-123.423 -51.017  0.00  0.00     0.004 A 
BRANCH  14  19
ATOM     19  O   UNL d   1     -41.123-121.495 -51.287  0.00  0.00    -0.305 OA
BRANCH  19  20
ATOM     20  C   UNL d   1     -41.312-120.889 -51.814  0.00  0.00     0.123 C 
BRANCH  20  21
ATOM     21  C   UNL d   1     -41.184-120.107 -51.607  0.00  0.00     0.027 C 
ATOM     22  C   UNL d   1     -41.193-119.517 -52.185  0.00  0.00     0.002 C 
ENDBRANCH  20  21
ENDBRANCH  19  20
ENDBRANCH  14  19
ENDBRANCH  12  13
ENDBRANCH   1  12
TORSDOF 5
ENDMDL
