MODEL 1
REMARK VINA RESULT:      -9.0      0.000      0.000
REMARK  4 active torsions:
REMARK  status: ('A' for Active; 'I' for Inactive)
REMARK    1  A    between atoms: N_2  and  S_1 
REMARK    2  A    between atoms: C_3  and  S_1 
REMARK    3  A    between atoms: C_17  and  N_4 
REMARK    4  A    between atoms: C_16  and  C_17 
ROOT
ATOM      1  N   UNL d   1     -49.466  14.392  22.370  0.00  0.00    -0.226 N 
ATOM      2  N   UNL d   1     -47.866  14.504  22.720  0.00  0.00    -0.300 N 
ATOM      3  C   UNL d   1     -49.224  14.470  23.160  0.00  0.00     0.111 A 
ATOM      4  C   UNL d   1     -48.910  14.371  21.761  0.00  0.00     0.111 A 
ATOM      5  C   UNL d   1     -48.107  14.428  21.943  0.00  0.00     0.100 A 
ATOM      6  C   UNL d   1     -48.410  14.526  23.332  0.00  0.00     0.100 A 
ENDROOT
BRANCH   1   7
ATOM      7  S   UNL d   1     -50.268  14.336  22.201  0.00  0.00     0.272 S 
ATOM      8  O   UNL d   1     -51.064  14.281  22.033  0.00  0.00    -0.200 OA
ATOM      9  O   UNL d   1     -50.325  15.151  22.205  0.00  0.00    -0.200 OA
BRANCH   7  10
ATOM     10  C   UNL d   1     -50.210  13.513  22.197  0.00  0.00     0.106 A 
ATOM     11  C   UNL d   1     -50.372  13.086  22.894  0.00  0.00     0.043 A 
ATOM     12  C   UNL d   1     -50.314  12.255  22.890  0.00  0.00     0.141 A 
ATOM     13  F   UNL d   1     -50.473  11.826  23.576  0.00  0.00    -0.204 F 
ATOM     14  C   UNL d   1     -50.093  11.860  22.189  0.00  0.00     0.030 A 
ATOM     15  C   UNL d   1     -49.937  12.288  21.512  0.00  0.00     0.003 A 
ATOM     16  C   UNL d   1     -49.995  13.119  21.516  0.00  0.00     0.013 A 
ENDBRANCH   7  10
ENDBRANCH   1   7
BRANCH   2  17
ATOM     17  C   UNL d   1     -47.061  14.560  22.890  0.00  0.00     0.080 C 
BRANCH  17  18
ATOM     18  C   UNL d   1     -46.583  13.891  22.849  0.00  0.00     0.020 A 
ATOM     19  C   UNL d   1     -46.753  13.249  23.326  0.00  0.00     0.028 A 
ATOM     20  C   UNL d   1     -46.280  12.572  23.292  0.00  0.00     0.119 A 
ATOM     21  O   UNL d   1     -46.310  11.848  23.698  0.00  0.00    -0.300 OA
ATOM     22  C   UNL d   1     -45.638  12.553  22.774  0.00  0.00     0.119 A 
ATOM     23  C   UNL d   1     -45.681  11.381  23.425  0.00  0.00     0.304 A 
ATOM     24  O   UNL d   1     -45.264  11.818  22.852  0.00  0.00    -0.300 OA
ATOM     25  C   UNL d   1     -45.468  13.203  22.292  0.00  0.00     0.026 A 
ATOM     26  C   UNL d   1     -45.942  13.873  22.330  0.00  0.00     0.004 A 
ENDBRANCH  17  18
ENDBRANCH   2  17
TORSDOF 4
ENDMDL
MODEL 2
REMARK VINA RESULT:      -8.0      1.465      2.319
REMARK  4 active torsions:
REMARK  status: ('A' for Active; 'I' for Inactive)
REMARK    1  A    between atoms: N_2  and  S_1 
REMARK    2  A    between atoms: C_3  and  S_1 
REMARK    3  A    between atoms: C_17  and  N_4 
REMARK    4  A    between atoms: C_16  and  C_17 
ROOT
ATOM      1  N   UNL d   1     -50.036  12.982  22.466  0.00  0.00    -0.226 N 
ATOM      2  N   UNL d   1     -49.039  11.965  23.282  0.00  0.00    -0.300 N 
ATOM      3  C   UNL d   1     -49.548  12.460  22.044  0.00  0.00     0.111 A 
ATOM      4  C   UNL d   1     -50.023  12.993  23.291  0.00  0.00     0.111 A 
ATOM      5  C   UNL d   1     -49.520  12.480  23.696  0.00  0.00     0.100 A 
ATOM      6  C   UNL d   1     -49.044  11.946  22.464  0.00  0.00     0.100 A 
ENDROOT
BRANCH   1   7
ATOM      7  S   UNL d   1     -50.532  13.489  22.053  0.00  0.00     0.272 S 
ATOM      8  O   UNL d   1     -51.026  13.992  21.641  0.00  0.00    -0.200 OA
ATOM      9  O   UNL d   1     -51.064  12.878  21.944  0.00  0.00    -0.200 OA
BRANCH   7  10
ATOM     10  C   UNL d   1     -49.995  14.105  22.163  0.00  0.00     0.106 A 
ATOM     11  C   UNL d   1     -50.102  14.637  22.796  0.00  0.00     0.043 A 
ATOM     12  C   UNL d   1     -49.559  15.259  22.907  0.00  0.00     0.141 A 
ATOM     13  F   UNL d   1     -49.659  15.787  23.532  0.00  0.00    -0.204 F 
ATOM     14  C   UNL d   1     -48.916  15.344  22.384  0.00  0.00     0.030 A 
ATOM     15  C   UNL d   1     -48.820  14.818  21.766  0.00  0.00     0.003 A 
ATOM     16  C   UNL d   1     -49.363  14.196  21.655  0.00  0.00     0.013 A 
ENDBRANCH   7  10
ENDBRANCH   1   7
BRANCH   2  17
ATOM     17  C   UNL d   1     -48.540  11.456  23.698  0.00  0.00     0.080 C 
BRANCH  17  18
ATOM     18  C   UNL d   1     -47.724  11.560  23.666  0.00  0.00     0.020 A 
ATOM     19  C   UNL d   1     -47.239  10.905  23.602  0.00  0.00     0.028 A 
ATOM     20  C   UNL d   1     -46.418  10.999  23.569  0.00  0.00     0.119 A 
ATOM     21  O   UNL d   1     -45.796  10.455  23.506  0.00  0.00    -0.300 OA
ATOM     22  C   UNL d   1     -46.098  11.759  23.600  0.00  0.00     0.119 A 
ATOM     23  C   UNL d   1     -45.086  10.884  23.498  0.00  0.00     0.304 A 
ATOM     24  O   UNL d   1     -45.273  11.694  23.557  0.00  0.00    -0.300 OA
ATOM     25  C   UNL d   1     -46.589  12.421  23.664  0.00  0.00     0.026 A 
ATOM     26  C   UNL d   1     -47.404  12.320  23.697  0.00  0.00     0.004 A 
ENDBRANCH  17  18
ENDBRANCH   2  17
TORSDOF 4
ENDMDL
MODEL 3
REMARK VINA RESULT:      -8.0      1.410      1.935
REMARK  4 active torsions:
REMARK  status: ('A' for Active; 'I' for Inactive)
REMARK    1  A    between atoms: N_2  and  S_1 
REMARK    2  A    between atoms: C_3  and  S_1 
REMARK    3  A    between atoms: C_17  and  N_4 
REMARK    4  A    between atoms: C_16  and  C_17 
ROOT
ATOM      1  N   UNL d   1     -49.249  13.155  22.240  0.00  0.00    -0.226 N 
ATOM      2  N   UNL d   1     -47.794  13.430  22.950  0.00  0.00    -0.300 N 
ATOM      3  C   UNL d   1     -49.031  12.718  22.912  0.00  0.00     0.111 A 
ATOM      4  C   UNL d   1     -48.740  13.725  21.928  0.00  0.00     0.111 A 
ATOM      5  C   UNL d   1     -48.010  13.859  22.289  0.00  0.00     0.100 A 
ATOM      6  C   UNL d   1     -48.291  12.863  23.268  0.00  0.00     0.100 A 
ENDROOT
BRANCH   1   7
ATOM      7  S   UNL d   1     -49.977  13.012  21.890  0.00  0.00     0.272 S 
ATOM      8  O   UNL d   1     -50.701  12.870  21.541  0.00  0.00    -0.200 OA
ATOM      9  O   UNL d   1     -49.620  12.516  21.348  0.00  0.00    -0.200 OA
BRANCH   7  10
ATOM     10  C   UNL d   1     -50.339  13.513  22.437  0.00  0.00     0.106 A 
ATOM     11  C   UNL d   1     -50.421  14.324  22.261  0.00  0.00     0.043 A 
ATOM     12  C   UNL d   1     -50.785  14.830  22.814  0.00  0.00     0.141 A 
ATOM     13  F   UNL d   1     -50.870  15.632  22.646  0.00  0.00    -0.204 F 
ATOM     14  C   UNL d   1     -51.064  14.519  23.536  0.00  0.00     0.030 A 
ATOM     15  C   UNL d   1     -50.979  13.724  23.698  0.00  0.00     0.003 A 
ATOM     16  C   UNL d   1     -50.614  13.218  23.146  0.00  0.00     0.013 A 
ENDBRANCH   7  10
ENDBRANCH   1   7
BRANCH   2  17
ATOM     17  C   UNL d   1     -47.062  13.574  23.303  0.00  0.00     0.080 C 
BRANCH  17  18
ATOM     18  C   UNL d   1     -46.390  13.187  23.028  0.00  0.00     0.020 A 
ATOM     19  C   UNL d   1     -45.862  13.592  22.552  0.00  0.00     0.028 A 
ATOM     20  C   UNL d   1     -45.183  13.213  22.270  0.00  0.00     0.119 A 
ATOM     21  O   UNL d   1     -44.559  13.470  21.788  0.00  0.00    -0.300 OA
ATOM     22  C   UNL d   1     -45.047  12.425  22.475  0.00  0.00     0.119 A 
ATOM     23  C   UNL d   1     -44.034  12.834  21.696  0.00  0.00     0.304 A 
ATOM     24  O   UNL d   1     -44.336  12.185  22.122  0.00  0.00    -0.300 OA
ATOM     25  C   UNL d   1     -45.581  12.017  22.956  0.00  0.00     0.026 A 
ATOM     26  C   UNL d   1     -46.254  12.399  23.232  0.00  0.00     0.004 A 
ENDBRANCH  17  18
ENDBRANCH   2  17
TORSDOF 4
ENDMDL
MODEL 4
REMARK VINA RESULT:      -7.3      8.579      9.665
REMARK  4 active torsions:
REMARK  status: ('A' for Active; 'I' for Inactive)
REMARK    1  A    between atoms: N_2  and  S_1 
REMARK    2  A    between atoms: C_3  and  S_1 
REMARK    3  A    between atoms: C_17  and  N_4 
REMARK    4  A    between atoms: C_16  and  C_17 
ROOT
ATOM      1  N   UNL d   1     -40.566  15.012  18.166  0.00  0.00    -0.226 N 
ATOM      2  N   UNL d   1     -40.747  15.104  19.795  0.00  0.00    -0.300 N 
ATOM      3  C   UNL d   1     -40.412  15.728  18.555  0.00  0.00     0.111 A 
ATOM      4  C   UNL d   1     -40.809  14.348  18.591  0.00  0.00     0.111 A 
ATOM      5  C   UNL d   1     -40.899  14.399  19.409  0.00  0.00     0.100 A 
ATOM      6  C   UNL d   1     -40.506  15.769  19.383  0.00  0.00     0.100 A 
ENDROOT
BRANCH   1   7
ATOM      7  S   UNL d   1     -40.473  14.972  17.351  0.00  0.00     0.272 S 
ATOM      8  O   UNL d   1     -40.382  14.932  16.541  0.00  0.00    -0.200 OA
ATOM      9  O   UNL d   1     -41.242  15.231  17.251  0.00  0.00    -0.200 OA
BRANCH   7  10
ATOM     10  C   UNL d   1     -39.698  14.710  17.452  0.00  0.00     0.106 A 
ATOM     11  C   UNL d   1     -39.538  13.891  17.471  0.00  0.00     0.043 A 
ATOM     12  C   UNL d   1     -38.755  13.627  17.573  0.00  0.00     0.141 A 
ATOM     13  F   UNL d   1     -38.591  12.820  17.593  0.00  0.00    -0.204 F 
ATOM     14  C   UNL d   1     -38.138  14.183  17.655  0.00  0.00     0.030 A 
ATOM     15  C   UNL d   1     -38.305  14.982  17.634  0.00  0.00     0.003 A 
ATOM     16  C   UNL d   1     -39.089  15.247  17.532  0.00  0.00     0.013 A 
ENDBRANCH   7  10
ENDBRANCH   1   7
BRANCH   2  17
ATOM     17  C   UNL d   1     -40.840  15.145  20.614  0.00  0.00     0.080 C 
BRANCH  17  18
ATOM     18  C   UNL d   1     -40.202  14.989  21.109  0.00  0.00     0.020 A 
ATOM     19  C   UNL d   1     -40.053  14.218  21.340  0.00  0.00     0.028 A 
ATOM     20  C   UNL d   1     -39.415  14.051  21.837  0.00  0.00     0.119 A 
ATOM     21  O   UNL d   1     -39.129  13.342  22.159  0.00  0.00    -0.300 OA
ATOM     22  C   UNL d   1     -38.932  14.668  22.096  0.00  0.00     0.119 A 
ATOM     23  C   UNL d   1     -38.464  13.526  22.621  0.00  0.00     0.304 A 
ATOM     24  O   UNL d   1     -38.342  14.349  22.582  0.00  0.00    -0.300 OA
ATOM     25  C   UNL d   1     -39.083  15.447  21.862  0.00  0.00     0.026 A 
ATOM     26  C   UNL d   1     -39.720  15.606  21.368  0.00  0.00     0.004 A 
ENDBRANCH  17  18
ENDBRANCH   2  17
TORSDOF 4
ENDMDL
MODEL 5
REMARK VINA RESULT:      -6.1      8.287      9.999
REMARK  4 active torsions:
REMARK  status: ('A' for Active; 'I' for Inactive)
REMARK    1  A    between atoms: N_2  and  S_1 
REMARK    2  A    between atoms: C_3  and  S_1 
REMARK    3  A    between atoms: C_17  and  N_4 
REMARK    4  A    between atoms: C_16  and  C_17 
ROOT
ATOM      1  N   UNL d   1     -38.763  15.008  20.661  0.00  0.00    -0.226 N 
ATOM      2  N   UNL d   1     -38.514  15.208  19.051  0.00  0.00    -0.300 N 
ATOM      3  C   UNL d   1     -38.691  14.341  20.172  0.00  0.00     0.111 A 
ATOM      4  C   UNL d   1     -38.710  15.768  20.345  0.00  0.00     0.111 A 
ATOM      5  C   UNL d   1     -38.585  15.863  19.535  0.00  0.00     0.100 A 
ATOM      6  C   UNL d   1     -38.564  14.450  19.355  0.00  0.00     0.100 A 
ENDROOT
BRANCH   1   7
ATOM      7  S   UNL d   1     -38.888  14.901  21.466  0.00  0.00     0.272 S 
ATOM      8  O   UNL d   1     -39.011  14.795  22.265  0.00  0.00    -0.200 OA
ATOM      9  O   UNL d   1     -38.087  14.775  21.573  0.00  0.00    -0.200 OA
BRANCH   7  10
ATOM     10  C   UNL d   1     -39.696  15.028  21.357  0.00  0.00     0.106 A 
ATOM     11  C   UNL d   1     -40.196  14.381  21.194  0.00  0.00     0.043 A 
ATOM     12  C   UNL d   1     -41.012  14.509  21.085  0.00  0.00     0.141 A 
ATOM     13  F   UNL d   1     -41.511  13.874  20.924  0.00  0.00    -0.204 F 
ATOM     14  C   UNL d   1     -41.319  15.283  21.140  0.00  0.00     0.030 A 
ATOM     15  C   UNL d   1     -40.821  15.909  21.300  0.00  0.00     0.003 A 
ATOM     16  C   UNL d   1     -40.005  15.781  21.409  0.00  0.00     0.013 A 
ENDBRANCH   7  10
ENDBRANCH   1   7
BRANCH   2  17
ATOM     17  C   UNL d   1     -38.388  15.315  18.242  0.00  0.00     0.080 C 
BRANCH  17  18
ATOM     18  C   UNL d   1     -39.000  15.180  17.709  0.00  0.00     0.020 A 
ATOM     19  C   UNL d   1     -39.670  15.649  17.740  0.00  0.00     0.028 A 
ATOM     20  C   UNL d   1     -40.290  15.522  17.209  0.00  0.00     0.119 A 
ATOM     21  O   UNL d   1     -41.022  15.897  17.106  0.00  0.00    -0.300 OA
ATOM     22  C   UNL d   1     -40.225  14.918  16.651  0.00  0.00     0.119 A 
ATOM     23  C   UNL d   1     -41.411  15.520  16.477  0.00  0.00     0.304 A 
ATOM     24  O   UNL d   1     -40.917  14.913  16.194  0.00  0.00    -0.300 OA
ATOM     25  C   UNL d   1     -39.548  14.444  16.620  0.00  0.00     0.026 A 
ATOM     26  C   UNL d   1     -38.935  14.577  17.150  0.00  0.00     0.004 A 
ENDBRANCH  17  18
ENDBRANCH   2  17
TORSDOF 4
ENDMDL
