MODEL 1
REMARK VINA RESULT:      97.9      0.000      0.000
REMARK  6 active torsions:
REMARK  status: ('A' for Active; 'I' for Inactive)
REMARK    1  A    between atoms: C_2  and  C_1 
REMARK    2  A    between atoms: C_3  and  C_1 
REMARK    3  A    between atoms: N_4  and  C_1 
REMARK       I    between atoms: N_9  and  C_2 
REMARK    4  A    between atoms: C_7  and  C_3 
REMARK       I    between atoms: C_8  and  N_4 
REMARK    5  A    between atoms: C_14  and  C_5 
REMARK    6  A    between atoms: C_15  and  C_8 
ROOT
ATOM      1  C   UNL d   1      60.472  48.964  50.478  0.00  0.00     0.143 C 
ENDROOT
BRANCH   1   2
ATOM      2  C   UNL d   1      61.048  49.334  50.945  0.00  0.00     0.283 C 
ATOM      3  N   UNL d   1      60.984  49.336  51.767  0.00  0.00    -0.267 N 
ATOM      4  C   UNL d   1      60.338  48.965  52.130  0.00  0.00     0.110 A 
ATOM      5  C   UNL d   1      61.554  49.702  52.230  0.00  0.00     0.110 A 
ATOM      6  C   UNL d   1      60.273  48.967  52.956  0.00  0.00     0.142 A 
ATOM      7  O   UNL d   1      60.851  49.337  53.411  0.00  0.00    -0.300 OA
ATOM      8  C   UNL d   1      61.494  49.705  53.043  0.00  0.00     0.142 A 
ATOM      9  O   UNL d   1      61.694  49.704  50.577  0.00  0.00    -0.265 OA
ENDBRANCH   1   2
BRANCH   1  10
ATOM     10  C   UNL d   1      60.377  48.181  50.722  0.00  0.00     0.049 C 
BRANCH  10  11
ATOM     11  C   UNL d   1      60.856  47.587  50.403  0.00  0.00     0.102 A 
ATOM     12  O   UNL d   1      60.652  46.803  50.314  0.00  0.00    -0.307 OA
ATOM     13  C   UNL d   1      61.303  46.416  49.972  0.00  0.00     0.100 A 
ATOM     14  C   UNL d   1      61.898  46.970  49.857  0.00  0.00     0.027 A 
ATOM     15  C   UNL d   1      61.613  47.774  50.144  0.00  0.00     0.027 A 
BRANCH  13  16
ATOM     16  C   UNL d   1      61.332  45.614  49.787  0.00  0.00     0.023 A 
ATOM     17  C   UNL d   1      61.259  45.059  50.396  0.00  0.00     0.002 A 
ATOM     18  C   UNL d   1      61.286  44.251  50.224  0.00  0.00     0.000 A 
ATOM     19  C   UNL d   1      61.386  44.001  49.441  0.00  0.00     0.000 A 
ATOM     20  C   UNL d   1      61.458  44.555  48.832  0.00  0.00     0.000 A 
ATOM     21  C   UNL d   1      61.431  45.356  49.004  0.00  0.00     0.002 A 
ENDBRANCH  13  16
ENDBRANCH  10  11
ENDBRANCH   1  10
BRANCH   1  22
ATOM     22  N   UNL d   1      60.020  49.257  49.854  0.00  0.00    -0.203 NA
ATOM     23  C   UNL d   1      59.233  49.367  49.640  0.00  0.00     0.279 C 
ATOM     24  O   UNL d   1      59.060  49.708  48.903  0.00  0.00    -0.265 OA
BRANCH  23  25
ATOM     25  C   UNL d   1      58.624  49.147  50.142  0.00  0.00     0.058 A 
ATOM     26  C   UNL d   1      58.302  49.704  50.660  0.00  0.00     0.005 A 
ATOM     27  C   UNL d   1      57.690  49.483  51.164  0.00  0.00     0.000 A 
ATOM     28  C   UNL d   1      57.397  48.712  51.155  0.00  0.00     0.000 A 
ATOM     29  C   UNL d   1      57.724  48.157  50.633  0.00  0.00     0.000 A 
ATOM     30  C   UNL d   1      58.337  48.378  50.128  0.00  0.00     0.005 A 
ENDBRANCH  23  25
ENDBRANCH   1  22
TORSDOF 6
ENDMDL
