MODEL 1
REMARK VINA RESULT:      34.4      0.000      0.000
REMARK  4 active torsions:
REMARK  status: ('A' for Active; 'I' for Inactive)
REMARK    1  A    between atoms: N_14  and  S_1 
REMARK    2  A    between atoms: C_5  and  C_17 
REMARK    3  A    between atoms: C_18  and  N_14 
REMARK    4  A    between atoms: C_17  and  C_18 
ROOT
ATOM      1  N   UNL d   1     -50.582  24.121  33.307  0.00  0.00    -0.208 NA
ATOM      2  C   UNL d   1     -50.037  24.747  33.307  0.00  0.00     0.279 A 
ATOM      3  C   UNL d   1     -51.399  24.278  33.307  0.00  0.00     0.085 A 
ATOM      4  C   UNL d   1     -50.306  25.528  33.306  0.00  0.00     0.059 A 
ATOM      5  C   UNL d   1     -51.122  25.689  33.306  0.00  0.00     0.006 A 
ATOM      6  C   UNL d   1     -51.661  25.061  33.306  0.00  0.00     0.018 A 
ATOM      7  C   UNL d   1     -51.940  23.654  33.307  0.00  0.00     0.019 A 
ATOM      8  C   UNL d   1     -52.478  25.218  33.306  0.00  0.00     0.002 A 
ATOM      9  C   UNL d   1     -52.750  23.813  33.306  0.00  0.00     0.002 A 
ATOM     10  C   UNL d   1     -53.019  24.594  33.306  0.00  0.00     0.000 A 
ATOM     11  O   UNL d   1     -49.227  24.588  33.307  0.00  0.00    -0.265 OA
ATOM     12  C   UNL d   1     -53.828  24.753  33.306  0.00  0.00     0.000 C 
ATOM     13  C   UNL d   1     -53.290  23.189  33.307  0.00  0.00     0.000 C 
ENDROOT
BRANCH   4  14
ATOM     14  C   UNL d   1     -49.766  26.152  33.306  0.00  0.00     0.026 C 
BRANCH  14  15
ATOM     15  C   UNL d   1     -49.805  26.728  33.895  0.00  0.00     0.112 C 
BRANCH  15  16
ATOM     16  N   UNL d   1     -49.112  27.000  34.250  0.00  0.00    -0.160 NA
BRANCH  16  17
ATOM     17  S   UNL d   1     -49.062  27.786  34.521  0.00  0.00     0.266 S 
ATOM     18  O   UNL d   1     -48.780  27.318  35.145  0.00  0.00    -0.203 OA
ATOM     19  O   UNL d   1     -48.933  28.463  34.970  0.00  0.00    -0.203 OA
ATOM     20  C   UNL d   1     -49.348  28.229  33.884  0.00  0.00     0.165 C 
ENDBRANCH  16  17
ENDBRANCH  15  16
ENDBRANCH  14  15
ENDBRANCH   4  14
TORSDOF 4
ENDMDL
MODEL 2
REMARK VINA RESULT:      36.3      1.332      1.837
REMARK  4 active torsions:
REMARK  status: ('A' for Active; 'I' for Inactive)
REMARK    1  A    between atoms: N_14  and  S_1 
REMARK    2  A    between atoms: C_5  and  C_17 
REMARK    3  A    between atoms: C_18  and  N_14 
REMARK    4  A    between atoms: C_17  and  C_18 
ROOT
ATOM      1  N   UNL d   1     -51.918  26.393  33.307  0.00  0.00    -0.208 NA
ATOM      2  C   UNL d   1     -51.352  27.000  33.306  0.00  0.00     0.279 A 
ATOM      3  C   UNL d   1     -51.677  25.596  33.307  0.00  0.00     0.085 A 
ATOM      4  C   UNL d   1     -50.547  26.814  33.306  0.00  0.00     0.059 A 
ATOM      5  C   UNL d   1     -50.302  26.019  33.307  0.00  0.00     0.006 A 
ATOM      6  C   UNL d   1     -50.871  25.417  33.307  0.00  0.00     0.018 A 
ATOM      7  C   UNL d   1     -52.242  24.994  33.308  0.00  0.00     0.019 A 
ATOM      8  C   UNL d   1     -50.630  24.621  33.308  0.00  0.00     0.002 A 
ATOM      9  C   UNL d   1     -51.999  24.205  33.308  0.00  0.00     0.002 A 
ATOM     10  C   UNL d   1     -51.195  24.019  33.308  0.00  0.00     0.000 A 
ATOM     11  O   UNL d   1     -51.594  27.789  33.306  0.00  0.00    -0.265 OA
ATOM     12  C   UNL d   1     -50.952  23.230  33.309  0.00  0.00     0.000 C 
ATOM     13  C   UNL d   1     -52.564  23.603  33.309  0.00  0.00     0.000 C 
ENDROOT
BRANCH   4  14
ATOM     14  C   UNL d   1     -49.983  27.416  33.306  0.00  0.00     0.026 C 
BRANCH  14  15
ATOM     15  C   UNL d   1     -49.558  27.580  33.994  0.00  0.00     0.112 C 
BRANCH  15  16
ATOM     16  N   UNL d   1     -49.050  28.229  34.016  0.00  0.00    -0.160 NA
BRANCH  16  17
ATOM     17  S   UNL d   1     -48.624  28.402  34.710  0.00  0.00     0.266 S 
ATOM     18  O   UNL d   1     -48.337  28.929  34.138  0.00  0.00    -0.203 OA
ATOM     19  O   UNL d   1     -48.109  28.724  35.266  0.00  0.00    -0.203 OA
ATOM     20  C   UNL d   1     -48.927  27.865  35.263  0.00  0.00     0.165 C 
ENDBRANCH  16  17
ENDBRANCH  15  16
ENDBRANCH  14  15
ENDBRANCH   4  14
TORSDOF 4
ENDMDL
