MODEL 1
REMARK VINA RESULT:      -6.0      0.000      0.000
REMARK  6 active torsions:
REMARK  status: ('A' for Active; 'I' for Inactive)
REMARK    1  A    between atoms: C_13  and  S_1 
REMARK    2  A    between atoms: C_2  and  C_6 
REMARK       I    between atoms: N_3  and  C_2 
REMARK    3  A    between atoms: C_4  and  N_3 
REMARK    4  A    between atoms: N_5  and  C_6 
REMARK       I    between atoms: C_7  and  N_5 
REMARK    5  A    between atoms: C_6  and  C_9 
REMARK    6  A    between atoms: C_9  and  C_13 
ROOT
ATOM      1  C   UNL d   1     -40.456  14.955  19.682  0.00  0.00     0.297 C 
ATOM      2  N   UNL d   1     -40.186  14.442  19.098  0.00  0.00    -0.207 NA
ATOM      3  O   UNL d   1     -40.670  15.731  19.483  0.00  0.00    -0.264 OA
ENDROOT
BRANCH   1   4
ATOM      4  C   UNL d   1     -40.513  14.697  20.470  0.00  0.00     0.143 C 
BRANCH   4   5
ATOM      5  N   UNL d   1     -40.972  14.036  20.652  0.00  0.00    -0.203 NA
ATOM      6  C   UNL d   1     -41.731  14.133  20.956  0.00  0.00     0.280 C 
ATOM      7  O   UNL d   1     -42.031  14.889  21.077  0.00  0.00    -0.265 OA
ATOM      8  C   UNL d   1     -42.190  13.472  21.139  0.00  0.00     0.068 C 
ENDBRANCH   4   5
BRANCH   4   9
ATOM      9  C   UNL d   1     -40.112  15.100  21.067  0.00  0.00     0.036 C 
BRANCH   9  10
ATOM     10  C   UNL d   1     -39.430  14.775  21.393  0.00  0.00     0.096 C 
BRANCH  10  11
ATOM     11  S   UNL d   1     -38.996  15.204  21.946  0.00  0.00     0.192 S 
ATOM     12  O   UNL d   1     -38.419  15.470  22.485  0.00  0.00    -0.222 OA
ATOM     13  O   UNL d   1     -38.537  14.527  21.801  0.00  0.00    -0.222 OA
ATOM     14  C   UNL d   1     -39.286  15.922  22.226  0.00  0.00     0.145 C 
ENDBRANCH  10  11
ENDBRANCH   9  10
ENDBRANCH   4   9
ENDBRANCH   1   4
BRANCH   2  15
ATOM     15  C   UNL d   1     -40.129  14.701  18.314  0.00  0.00     0.085 A 
ATOM     16  C   UNL d   1     -39.626  14.312  17.781  0.00  0.00     0.018 A 
ATOM     17  C   UNL d   1     -39.565  14.564  17.000  0.00  0.00     0.002 A 
ATOM     18  C   UNL d   1     -39.185  13.667  18.045  0.00  0.00     0.002 A 
ATOM     19  C   UNL d   1     -39.069  14.183  16.470  0.00  0.00     0.000 A 
ATOM     20  C   UNL d   1     -40.017  15.221  16.743  0.00  0.00     0.000 A 
ATOM     21  C   UNL d   1     -38.621  13.531  16.730  0.00  0.00     0.000 A 
ATOM     22  C   UNL d   1     -38.683  13.279  17.514  0.00  0.00     0.000 A 
ATOM     23  C   UNL d   1     -40.513  15.599  17.277  0.00  0.00     0.002 A 
ATOM     24  C   UNL d   1     -40.572  15.347  18.054  0.00  0.00     0.019 A 
ENDBRANCH   2  15
TORSDOF 6
ENDMDL
MODEL 2
REMARK VINA RESULT:      -5.8      1.961      4.075
REMARK  6 active torsions:
REMARK  status: ('A' for Active; 'I' for Inactive)
REMARK    1  A    between atoms: C_13  and  S_1 
REMARK    2  A    between atoms: C_2  and  C_6 
REMARK       I    between atoms: N_3  and  C_2 
REMARK    3  A    between atoms: C_4  and  N_3 
REMARK    4  A    between atoms: N_5  and  C_6 
REMARK       I    between atoms: C_7  and  N_5 
REMARK    5  A    between atoms: C_6  and  C_9 
REMARK    6  A    between atoms: C_9  and  C_13 
ROOT
ATOM      1  C   UNL d   1     -40.356  14.740  18.717  0.00  0.00     0.297 C 
ATOM      2  N   UNL d   1     -39.899  15.268  19.152  0.00  0.00    -0.207 NA
ATOM      3  O   UNL d   1     -40.980  14.334  19.083  0.00  0.00    -0.264 OA
ENDROOT
BRANCH   1   4
ATOM      4  C   UNL d   1     -40.193  14.614  17.912  0.00  0.00     0.143 C 
BRANCH   4   5
ATOM      5  N   UNL d   1     -40.762  14.800  17.344  0.00  0.00    -0.203 NA
ATOM      6  C   UNL d   1     -40.657  15.454  16.855  0.00  0.00     0.280 C 
ATOM      7  O   UNL d   1     -39.985  15.922  16.934  0.00  0.00    -0.265 OA
ATOM      8  C   UNL d   1     -41.226  15.641  16.287  0.00  0.00     0.068 C 
ENDBRANCH   4   5
BRANCH   4   9
ATOM      9  C   UNL d   1     -39.466  14.303  17.681  0.00  0.00     0.036 C 
BRANCH   9  10
ATOM     10  C   UNL d   1     -39.338  13.490  17.716  0.00  0.00     0.096 C 
BRANCH  10  11
ATOM     11  S   UNL d   1     -38.645  13.171  17.407  0.00  0.00     0.192 S 
ATOM     12  O   UNL d   1     -38.075  12.679  17.050  0.00  0.00    -0.222 OA
ATOM     13  O   UNL d   1     -39.218  12.584  17.282  0.00  0.00    -0.222 OA
ATOM     14  C   UNL d   1     -37.946  13.606  17.433  0.00  0.00     0.145 C 
ENDBRANCH  10  11
ENDBRANCH   9  10
ENDBRANCH   4   9
ENDBRANCH   1   4
BRANCH   2  15
ATOM     15  C   UNL d   1     -40.063  15.393  19.954  0.00  0.00     0.085 A 
ATOM     16  C   UNL d   1     -39.449  15.570  20.483  0.00  0.00     0.018 A 
ATOM     17  C   UNL d   1     -39.604  15.695  21.281  0.00  0.00     0.002 A 
ATOM     18  C   UNL d   1     -38.676  15.620  20.197  0.00  0.00     0.002 A 
ATOM     19  C   UNL d   1     -39.001  15.870  21.807  0.00  0.00     0.000 A 
ATOM     20  C   UNL d   1     -40.393  15.642  21.560  0.00  0.00     0.000 A 
ATOM     21  C   UNL d   1     -38.218  15.922  21.525  0.00  0.00     0.000 A 
ATOM     22  C   UNL d   1     -38.064  15.796  20.724  0.00  0.00     0.000 A 
ATOM     23  C   UNL d   1     -40.994  15.467  21.029  0.00  0.00     0.002 A 
ATOM     24  C   UNL d   1     -40.837  15.342  20.235  0.00  0.00     0.019 A 
ENDBRANCH   2  15
TORSDOF 6
ENDMDL
MODEL 3
REMARK VINA RESULT:      -5.7      6.634      9.001
REMARK  6 active torsions:
REMARK  status: ('A' for Active; 'I' for Inactive)
REMARK    1  A    between atoms: C_13  and  S_1 
REMARK    2  A    between atoms: C_2  and  C_6 
REMARK       I    between atoms: N_3  and  C_2 
REMARK    3  A    between atoms: C_4  and  N_3 
REMARK    4  A    between atoms: N_5  and  C_6 
REMARK       I    between atoms: C_7  and  N_5 
REMARK    5  A    between atoms: C_6  and  C_9 
REMARK    6  A    between atoms: C_9  and  C_13 
ROOT
ATOM      1  C   UNL d   1     -47.164  12.752  22.988  0.00  0.00     0.297 C 
ATOM      2  N   UNL d   1     -47.831  12.780  22.506  0.00  0.00    -0.207 NA
ATOM      3  O   UNL d   1     -47.186  12.324  23.698  0.00  0.00    -0.264 OA
ENDROOT
BRANCH   1   4
ATOM      4  C   UNL d   1     -46.471  13.151  22.763  0.00  0.00     0.143 C 
BRANCH   4   5
ATOM      5  N   UNL d   1     -46.520  13.905  22.433  0.00  0.00    -0.203 NA
ATOM      6  C   UNL d   1     -46.369  14.568  22.897  0.00  0.00     0.280 C 
ATOM      7  O   UNL d   1     -46.169  14.478  23.690  0.00  0.00    -0.265 OA
ATOM      8  C   UNL d   1     -46.419  15.323  22.567  0.00  0.00     0.068 C 
ENDBRANCH   4   5
BRANCH   4   9
ATOM      9  C   UNL d   1     -45.735  12.794  22.869  0.00  0.00     0.036 C 
BRANCH   9  10
ATOM     10  C   UNL d   1     -45.280  12.593  22.214  0.00  0.00     0.096 C 
BRANCH  10  11
ATOM     11  S   UNL d   1     -44.570  12.187  22.317  0.00  0.00     0.192 S 
ATOM     12  O   UNL d   1     -43.795  11.891  22.244  0.00  0.00    -0.222 OA
ATOM     13  O   UNL d   1     -44.445  12.658  21.645  0.00  0.00    -0.222 OA
ATOM     14  C   UNL d   1     -44.489  11.659  22.943  0.00  0.00     0.145 C 
ENDBRANCH  10  11
ENDBRANCH   9  10
ENDBRANCH   4   9
ENDBRANCH   1   4
BRANCH   2  15
ATOM     15  C   UNL d   1     -48.520  12.382  22.732  0.00  0.00     0.085 A 
ATOM     16  C   UNL d   1     -49.244  12.559  22.365  0.00  0.00     0.018 A 
ATOM     17  C   UNL d   1     -49.934  12.167  22.584  0.00  0.00     0.002 A 
ATOM     18  C   UNL d   1     -49.263  13.135  21.775  0.00  0.00     0.002 A 
ATOM     19  C   UNL d   1     -50.650  12.338  22.224  0.00  0.00     0.000 A 
ATOM     20  C   UNL d   1     -49.902  11.584  23.185  0.00  0.00     0.000 A 
ATOM     21  C   UNL d   1     -50.676  12.919  21.628  0.00  0.00     0.000 A 
ATOM     22  C   UNL d   1     -49.983  13.311  21.409  0.00  0.00     0.000 A 
ATOM     23  C   UNL d   1     -49.182  11.416  23.542  0.00  0.00     0.002 A 
ATOM     24  C   UNL d   1     -48.497  11.806  23.323  0.00  0.00     0.019 A 
ENDBRANCH   2  15
TORSDOF 6
ENDMDL
MODEL 4
REMARK VINA RESULT:      -5.7      2.052      4.335
REMARK  6 active torsions:
REMARK  status: ('A' for Active; 'I' for Inactive)
REMARK    1  A    between atoms: C_13  and  S_1 
REMARK    2  A    between atoms: C_2  and  C_6 
REMARK       I    between atoms: N_3  and  C_2 
REMARK    3  A    between atoms: C_4  and  N_3 
REMARK    4  A    between atoms: N_5  and  C_6 
REMARK       I    between atoms: C_7  and  N_5 
REMARK    5  A    between atoms: C_6  and  C_9 
REMARK    6  A    between atoms: C_9  and  C_13 
ROOT
ATOM      1  C   UNL d   1     -39.503  14.148  18.800  0.00  0.00     0.297 C 
ATOM      2  N   UNL d   1     -39.208  14.604  19.418  0.00  0.00    -0.207 NA
ATOM      3  O   UNL d   1     -40.272  13.841  18.844  0.00  0.00    -0.264 OA
ENDROOT
BRANCH   1   4
ATOM      4  C   UNL d   1     -39.032  13.995  18.133  0.00  0.00     0.143 C 
BRANCH   4   5
ATOM      5  N   UNL d   1     -38.429  13.433  18.177  0.00  0.00    -0.203 NA
ATOM      6  C   UNL d   1     -38.560  12.666  17.910  0.00  0.00     0.280 C 
ATOM      7  O   UNL d   1     -39.294  12.459  17.599  0.00  0.00    -0.265 OA
ATOM      8  C   UNL d   1     -37.958  12.104  17.954  0.00  0.00     0.068 C 
ENDBRANCH   4   5
BRANCH   4   9
ATOM      9  C   UNL d   1     -39.166  14.402  17.429  0.00  0.00     0.036 C 
BRANCH   9  10
ATOM     10  C   UNL d   1     -38.577  14.886  17.118  0.00  0.00     0.096 C 
BRANCH  10  11
ATOM     11  S   UNL d   1     -38.745  15.375  16.477  0.00  0.00     0.192 S 
ATOM     12  O   UNL d   1     -38.703  15.922  15.850  0.00  0.00    -0.222 OA
ATOM     13  O   UNL d   1     -37.940  15.505  16.632  0.00  0.00    -0.222 OA
ATOM     14  C   UNL d   1     -39.506  15.394  16.165  0.00  0.00     0.145 C 
ENDBRANCH  10  11
ENDBRANCH   9  10
ENDBRANCH   4   9
ENDBRANCH   1   4
BRANCH   2  15
ATOM     15  C   UNL d   1     -39.679  14.755  20.081  0.00  0.00     0.085 A 
ATOM     16  C   UNL d   1     -39.358  15.142  20.742  0.00  0.00     0.018 A 
ATOM     17  C   UNL d   1     -39.820  15.295  21.405  0.00  0.00     0.002 A 
ATOM     18  C   UNL d   1     -38.565  15.371  20.726  0.00  0.00     0.002 A 
ATOM     19  C   UNL d   1     -39.507  15.676  22.060  0.00  0.00     0.000 A 
ATOM     20  C   UNL d   1     -40.624  15.058  21.410  0.00  0.00     0.000 A 
ATOM     21  C   UNL d   1     -38.708  15.910  22.050  0.00  0.00     0.000 A 
ATOM     22  C   UNL d   1     -38.245  15.755  21.384  0.00  0.00     0.000 A 
ATOM     23  C   UNL d   1     -40.933  14.677  20.752  0.00  0.00     0.002 A 
ATOM     24  C   UNL d   1     -40.471  14.525  20.093  0.00  0.00     0.019 A 
ENDBRANCH   2  15
TORSDOF 6
ENDMDL
MODEL 5
REMARK VINA RESULT:      -5.5      6.644      9.154
REMARK  6 active torsions:
REMARK  status: ('A' for Active; 'I' for Inactive)
REMARK    1  A    between atoms: C_13  and  S_1 
REMARK    2  A    between atoms: C_2  and  C_6 
REMARK       I    between atoms: N_3  and  C_2 
REMARK    3  A    between atoms: C_4  and  N_3 
REMARK    4  A    between atoms: N_5  and  C_6 
REMARK       I    between atoms: C_7  and  N_5 
REMARK    5  A    between atoms: C_6  and  C_9 
REMARK    6  A    between atoms: C_9  and  C_13 
ROOT
ATOM      1  C   UNL d   1     -47.609  13.442  22.949  0.00  0.00     0.297 C 
ATOM      2  N   UNL d   1     -48.313  13.434  22.523  0.00  0.00    -0.207 NA
ATOM      3  O   UNL d   1     -47.396  14.117  23.382  0.00  0.00    -0.264 OA
ENDROOT
BRANCH   1   4
ATOM      4  C   UNL d   1     -47.113  12.776  22.947  0.00  0.00     0.143 C 
BRANCH   4   5
ATOM      5  N   UNL d   1     -47.261  12.152  23.466  0.00  0.00    -0.203 NA
ATOM      6  C   UNL d   1     -47.557  11.439  23.179  0.00  0.00     0.280 C 
ATOM      7  O   UNL d   1     -47.703  11.349  22.375  0.00  0.00    -0.265 OA
ATOM      8  C   UNL d   1     -47.705  10.815  23.698  0.00  0.00     0.068 C 
ENDBRANCH   4   5
BRANCH   4   9
ATOM      9  C   UNL d   1     -46.474  12.738  22.428  0.00  0.00     0.036 C 
BRANCH   9  10
ATOM     10  C   UNL d   1     -45.723  12.954  22.687  0.00  0.00     0.096 C 
BRANCH  10  11
ATOM     11  S   UNL d   1     -45.073  12.847  22.192  0.00  0.00     0.192 S 
ATOM     12  O   UNL d   1     -44.319  12.678  21.879  0.00  0.00    -0.222 OA
ATOM     13  O   UNL d   1     -44.798  12.636  22.946  0.00  0.00    -0.222 OA
ATOM     14  C   UNL d   1     -45.140  13.005  21.387  0.00  0.00     0.145 C 
ENDBRANCH  10  11
ENDBRANCH   9  10
ENDBRANCH   4   9
ENDBRANCH   1   4
BRANCH   2  15
ATOM     15  C   UNL d   1     -48.806  14.099  22.526  0.00  0.00     0.085 A 
ATOM     16  C   UNL d   1     -49.562  14.059  22.187  0.00  0.00     0.018 A 
ATOM     17  C   UNL d   1     -50.058  14.716  22.187  0.00  0.00     0.002 A 
ATOM     18  C   UNL d   1     -49.812  13.350  21.848  0.00  0.00     0.002 A 
ATOM     19  C   UNL d   1     -50.805  14.682  21.853  0.00  0.00     0.000 A 
ATOM     20  C   UNL d   1     -49.793  15.432  22.534  0.00  0.00     0.000 A 
ATOM     21  C   UNL d   1     -51.064  13.969  21.509  0.00  0.00     0.000 A 
ATOM     22  C   UNL d   1     -50.566  13.310  21.510  0.00  0.00     0.000 A 
ATOM     23  C   UNL d   1     -49.043  15.461  22.867  0.00  0.00     0.002 A 
ATOM     24  C   UNL d   1     -48.552  14.806  22.866  0.00  0.00     0.019 A 
ENDBRANCH   2  15
TORSDOF 6
ENDMDL
MODEL 6
REMARK VINA RESULT:      -5.5      7.173      9.174
REMARK  6 active torsions:
REMARK  status: ('A' for Active; 'I' for Inactive)
REMARK    1  A    between atoms: C_13  and  S_1 
REMARK    2  A    between atoms: C_2  and  C_6 
REMARK       I    between atoms: N_3  and  C_2 
REMARK    3  A    between atoms: C_4  and  N_3 
REMARK    4  A    between atoms: N_5  and  C_6 
REMARK       I    between atoms: C_7  and  N_5 
REMARK    5  A    between atoms: C_6  and  C_9 
REMARK    6  A    between atoms: C_9  and  C_13 
ROOT
ATOM      1  C   UNL d   1     -48.066  13.194  22.922  0.00  0.00     0.297 C 
ATOM      2  N   UNL d   1     -47.323  13.140  22.571  0.00  0.00    -0.207 NA
ATOM      3  O   UNL d   1     -48.255  12.705  23.564  0.00  0.00    -0.264 OA
ENDROOT
BRANCH   1   4
ATOM      4  C   UNL d   1     -48.624  13.738  22.634  0.00  0.00     0.143 C 
BRANCH   4   5
ATOM      5  N   UNL d   1     -48.404  14.523  22.509  0.00  0.00    -0.203 NA
ATOM      6  C   UNL d   1     -48.735  15.121  22.969  0.00  0.00     0.280 C 
ATOM      7  O   UNL d   1     -49.283  14.934  23.553  0.00  0.00    -0.265 OA
ATOM      8  C   UNL d   1     -48.515  15.907  22.844  0.00  0.00     0.068 C 
ENDBRANCH   4   5
BRANCH   4   9
ATOM      9  C   UNL d   1     -49.394  13.494  22.473  0.00  0.00     0.036 C 
BRANCH   9  10
ATOM     10  C   UNL d   1     -49.560  13.102  21.768  0.00  0.00     0.096 C 
BRANCH  10  11
ATOM     11  S   UNL d   1     -50.314  12.796  21.638  0.00  0.00     0.192 S 
ATOM     12  O   UNL d   1     -51.064  12.612  21.326  0.00  0.00    -0.222 OA
ATOM     13  O   UNL d   1     -50.178  13.298  20.990  0.00  0.00    -0.222 OA
ATOM     14  C   UNL d   1     -50.640  12.267  22.177  0.00  0.00     0.145 C 
ENDBRANCH  10  11
ENDBRANCH   9  10
ENDBRANCH   4   9
ENDBRANCH   1   4
BRANCH   2  15
ATOM     15  C   UNL d   1     -46.768  12.598  22.860  0.00  0.00     0.085 A 
ATOM     16  C   UNL d   1     -45.979  12.631  22.604  0.00  0.00     0.018 A 
ATOM     17  C   UNL d   1     -45.422  12.095  22.887  0.00  0.00     0.002 A 
ATOM     18  C   UNL d   1     -45.759  13.212  22.061  0.00  0.00     0.002 A 
ATOM     19  C   UNL d   1     -44.642  12.125  22.637  0.00  0.00     0.000 A 
ATOM     20  C   UNL d   1     -45.657  11.510  23.438  0.00  0.00     0.000 A 
ATOM     21  C   UNL d   1     -44.413  12.709  22.088  0.00  0.00     0.000 A 
ATOM     22  C   UNL d   1     -44.973  13.246  21.806  0.00  0.00     0.000 A 
ATOM     23  C   UNL d   1     -46.440  11.485  23.685  0.00  0.00     0.002 A 
ATOM     24  C   UNL d   1     -46.992  12.019  23.403  0.00  0.00     0.019 A 
ENDBRANCH   2  15
TORSDOF 6
ENDMDL
MODEL 7
REMARK VINA RESULT:      -5.1      1.457      2.270
REMARK  6 active torsions:
REMARK  status: ('A' for Active; 'I' for Inactive)
REMARK    1  A    between atoms: C_13  and  S_1 
REMARK    2  A    between atoms: C_2  and  C_6 
REMARK       I    between atoms: N_3  and  C_2 
REMARK    3  A    between atoms: C_4  and  N_3 
REMARK    4  A    between atoms: N_5  and  C_6 
REMARK       I    between atoms: C_7  and  N_5 
REMARK    5  A    between atoms: C_6  and  C_9 
REMARK    6  A    between atoms: C_9  and  C_13 
ROOT
ATOM      1  C   UNL d   1     -38.930  15.099  19.719  0.00  0.00     0.297 C 
ATOM      2  N   UNL d   1     -38.815  14.576  19.095  0.00  0.00    -0.207 NA
ATOM      3  O   UNL d   1     -38.754  15.903  19.621  0.00  0.00    -0.264 OA
ENDROOT
BRANCH   1   4
ATOM      4  C   UNL d   1     -39.223  14.823  20.446  0.00  0.00     0.143 C 
BRANCH   4   5
ATOM      5  N   UNL d   1     -38.816  14.233  20.854  0.00  0.00    -0.203 NA
ATOM      6  C   UNL d   1     -38.347  14.428  21.502  0.00  0.00     0.280 C 
ATOM      7  O   UNL d   1     -38.284  15.213  21.742  0.00  0.00    -0.265 OA
ATOM      8  C   UNL d   1     -37.940  13.838  21.910  0.00  0.00     0.068 C 
ENDBRANCH   4   5
BRANCH   4   9
ATOM      9  C   UNL d   1     -39.917  15.138  20.759  0.00  0.00     0.036 C 
BRANCH   9  10
ATOM     10  C   UNL d   1     -40.631  14.741  20.651  0.00  0.00     0.096 C 
BRANCH  10  11
ATOM     11  S   UNL d   1     -41.338  15.104  20.870  0.00  0.00     0.192 S 
ATOM     12  O   UNL d   1     -42.125  15.264  21.088  0.00  0.00    -0.222 OA
ATOM     13  O   UNL d   1     -41.520  14.295  20.836  0.00  0.00    -0.222 OA
ATOM     14  C   UNL d   1     -41.367  15.922  20.959  0.00  0.00     0.145 C 
ENDBRANCH  10  11
ENDBRANCH   9  10
ENDBRANCH   4   9
ENDBRANCH   1   4
BRANCH   2  15
ATOM     15  C   UNL d   1     -38.524  14.852  18.372  0.00  0.00     0.085 A 
ATOM     16  C   UNL d   1     -38.457  14.338  17.724  0.00  0.00     0.018 A 
ATOM     17  C   UNL d   1     -38.168  14.606  17.001  0.00  0.00     0.002 A 
ATOM     18  C   UNL d   1     -38.685  13.550  17.813  0.00  0.00     0.002 A 
ATOM     19  C   UNL d   1     -38.101  14.102  16.359  0.00  0.00     0.000 A 
ATOM     20  C   UNL d   1     -37.940  15.409  16.922  0.00  0.00     0.000 A 
ATOM     21  C   UNL d   1     -38.330  13.305  16.443  0.00  0.00     0.000 A 
ATOM     22  C   UNL d   1     -38.619  13.037  17.168  0.00  0.00     0.000 A 
ATOM     23  C   UNL d   1     -38.009  15.910  17.569  0.00  0.00     0.002 A 
ATOM     24  C   UNL d   1     -38.297  15.641  18.286  0.00  0.00     0.019 A 
ENDBRANCH   2  15
TORSDOF 6
ENDMDL
MODEL 8
REMARK VINA RESULT:      -4.9      1.207      2.193
REMARK  6 active torsions:
REMARK  status: ('A' for Active; 'I' for Inactive)
REMARK    1  A    between atoms: C_13  and  S_1 
REMARK    2  A    between atoms: C_2  and  C_6 
REMARK       I    between atoms: N_3  and  C_2 
REMARK    3  A    between atoms: C_4  and  N_3 
REMARK    4  A    between atoms: N_5  and  C_6 
REMARK       I    between atoms: C_7  and  N_5 
REMARK    5  A    between atoms: C_6  and  C_9 
REMARK    6  A    between atoms: C_9  and  C_13 
ROOT
ATOM      1  C   UNL d   1     -40.652  14.709  19.708  0.00  0.00     0.297 C 
ATOM      2  N   UNL d   1     -40.274  14.229  19.156  0.00  0.00    -0.207 NA
ATOM      3  O   UNL d   1     -40.932  15.456  19.483  0.00  0.00    -0.264 OA
ENDROOT
BRANCH   1   4
ATOM      4  C   UNL d   1     -40.751  14.445  20.490  0.00  0.00     0.143 C 
BRANCH   4   5
ATOM      5  N   UNL d   1     -40.095  14.370  20.984  0.00  0.00    -0.203 NA
ATOM      6  C   UNL d   1     -39.892  14.984  21.495  0.00  0.00     0.280 C 
ATOM      7  O   UNL d   1     -40.345  15.671  21.512  0.00  0.00    -0.265 OA
ATOM      8  C   UNL d   1     -39.236  14.909  21.990  0.00  0.00     0.068 C 
ENDBRANCH   4   5
BRANCH   4   9
ATOM      9  C   UNL d   1     -41.503  14.259  20.771  0.00  0.00     0.036 C 
BRANCH   9  10
ATOM     10  C   UNL d   1     -41.706  13.473  20.906  0.00  0.00     0.096 C 
BRANCH  10  11
ATOM     11  S   UNL d   1     -42.482  13.278  21.104  0.00  0.00     0.192 S 
ATOM     12  O   UNL d   1     -43.201  12.881  21.244  0.00  0.00    -0.222 OA
ATOM     13  O   UNL d   1     -42.143  12.560  20.861  0.00  0.00    -0.222 OA
ATOM     14  C   UNL d   1     -42.995  13.863  21.373  0.00  0.00     0.145 C 
ENDBRANCH  10  11
ENDBRANCH   9  10
ENDBRANCH   4   9
ENDBRANCH   1   4
BRANCH   2  15
ATOM     15  C   UNL d   1     -40.176  14.494  18.378  0.00  0.00     0.085 A 
ATOM     16  C   UNL d   1     -39.614  14.135  17.883  0.00  0.00     0.018 A 
ATOM     17  C   UNL d   1     -39.510  14.393  17.109  0.00  0.00     0.002 A 
ATOM     18  C   UNL d   1     -39.158  13.514  18.179  0.00  0.00     0.002 A 
ATOM     19  C   UNL d   1     -38.957  14.042  16.617  0.00  0.00     0.000 A 
ATOM     20  C   UNL d   1     -39.979  15.024  16.819  0.00  0.00     0.000 A 
ATOM     21  C   UNL d   1     -38.493  13.414  16.909  0.00  0.00     0.000 A 
ATOM     22  C   UNL d   1     -38.598  13.157  17.686  0.00  0.00     0.000 A 
ATOM     23  C   UNL d   1     -40.532  15.373  17.316  0.00  0.00     0.002 A 
ATOM     24  C   UNL d   1     -40.633  15.115  18.086  0.00  0.00     0.019 A 
ENDBRANCH   2  15
TORSDOF 6
ENDMDL
MODEL 9
REMARK VINA RESULT:      -4.6      6.104      8.782
REMARK  6 active torsions:
REMARK  status: ('A' for Active; 'I' for Inactive)
REMARK    1  A    between atoms: C_13  and  S_1 
REMARK    2  A    between atoms: C_2  and  C_6 
REMARK       I    between atoms: N_3  and  C_2 
REMARK    3  A    between atoms: C_4  and  N_3 
REMARK    4  A    between atoms: N_5  and  C_6 
REMARK       I    between atoms: C_7  and  N_5 
REMARK    5  A    between atoms: C_6  and  C_9 
REMARK    6  A    between atoms: C_9  and  C_13 
ROOT
ATOM      1  C   UNL d   1     -46.634  13.499  22.783  0.00  0.00     0.297 C 
ATOM      2  N   UNL d   1     -47.420  13.292  22.651  0.00  0.00    -0.207 NA
ATOM      3  O   UNL d   1     -46.434  14.293  22.915  0.00  0.00    -0.264 OA
ENDROOT
BRANCH   1   4
ATOM      4  C   UNL d   1     -46.043  12.915  22.783  0.00  0.00     0.143 C 
BRANCH   4   5
ATOM      5  N   UNL d   1     -45.261  13.123  22.626  0.00  0.00    -0.203 NA
ATOM      6  C   UNL d   1     -44.980  13.117  21.852  0.00  0.00     0.280 C 
ATOM      7  O   UNL d   1     -45.481  12.903  21.235  0.00  0.00    -0.265 OA
ATOM      8  C   UNL d   1     -44.197  13.325  21.695  0.00  0.00     0.068 C 
ENDBRANCH   4   5
BRANCH   4   9
ATOM      9  C   UNL d   1     -46.239  12.130  22.939  0.00  0.00     0.036 C 
BRANCH   9  10
ATOM     10  C   UNL d   1     -45.725  11.661  23.379  0.00  0.00     0.096 C 
BRANCH  10  11
ATOM     11  S   UNL d   1     -45.905  10.867  23.509  0.00  0.00     0.192 S 
ATOM     12  O   UNL d   1     -45.875  10.056  23.696  0.00  0.00    -0.222 OA
ATOM     13  O   UNL d   1     -45.099  10.931  23.698  0.00  0.00    -0.222 OA
ATOM     14  C   UNL d   1     -46.670  10.594  23.376  0.00  0.00     0.145 C 
ENDBRANCH  10  11
ENDBRANCH   9  10
ENDBRANCH   4   9
ENDBRANCH   1   4
BRANCH   2  15
ATOM     15  C   UNL d   1     -48.007  13.875  22.651  0.00  0.00     0.085 A 
ATOM     16  C   UNL d   1     -48.799  13.670  22.513  0.00  0.00     0.018 A 
ATOM     17  C   UNL d   1     -49.388  14.245  22.512  0.00  0.00     0.002 A 
ATOM     18  C   UNL d   1     -48.990  12.879  22.377  0.00  0.00     0.002 A 
ATOM     19  C   UNL d   1     -50.172  14.047  22.376  0.00  0.00     0.000 A 
ATOM     20  C   UNL d   1     -49.183  15.045  22.652  0.00  0.00     0.000 A 
ATOM     21  C   UNL d   1     -50.372  13.250  22.238  0.00  0.00     0.000 A 
ATOM     22  C   UNL d   1     -49.779  12.674  22.239  0.00  0.00     0.000 A 
ATOM     23  C   UNL d   1     -48.396  15.238  22.787  0.00  0.00     0.002 A 
ATOM     24  C   UNL d   1     -47.812  14.665  22.788  0.00  0.00     0.019 A 
ENDBRANCH   2  15
TORSDOF 6
ENDMDL
