MODEL 1
REMARK VINA RESULT:       8.7      0.000      0.000
REMARK  3 active torsions:
REMARK  status: ('A' for Active; 'I' for Inactive)
REMARK       I    between atoms: C_2  and  N_1 
REMARK    1  A    between atoms: C_4  and  C_2 
REMARK    2  A    between atoms: C_6  and  C_4 
REMARK    3  A    between atoms: C_10  and  C_6 
ROOT
ATOM      1  N   UNL d   1      46.247 -17.944  43.537  0.00  0.00    -0.273 N 
ATOM      2  C   UNL d   1      46.142 -17.510  44.221  0.00  0.00     0.265 C 
ATOM      3  C   UNL d   1      46.371 -18.751  43.498  0.00  0.00     0.067 A 
ATOM      4  C   UNL d   1      46.246 -17.644  42.771  0.00  0.00     0.083 A 
ATOM      5  C   UNL d   1      46.448 -18.960  42.704  0.00  0.00     0.018 A 
ATOM      6  O   UNL d   1      46.156 -17.883  44.954  0.00  0.00    -0.267 OA
ATOM      7  C   UNL d   1      46.372 -18.278  42.251  0.00  0.00     0.021 A 
ATOM      8  C   UNL d   1      46.425 -19.333  44.085  0.00  0.00     0.018 A 
ATOM      9  C   UNL d   1      46.580 -19.750  42.494  0.00  0.00     0.002 A 
ATOM     10  C   UNL d   1      46.556 -20.117  43.871  0.00  0.00     0.002 A 
ATOM     11  C   UNL d   1      46.634 -20.330  43.076  0.00  0.00     0.000 A 
ENDROOT
BRANCH   2  12
ATOM     12  C   UNL d   1      46.021 -16.696  44.179  0.00  0.00     0.061 C 
BRANCH  12  13
ATOM     13  C   UNL d   1      45.884 -16.259  44.864  0.00  0.00     0.005 C 
BRANCH  13  14
ATOM     14  C   UNL d   1      45.599 -15.492  44.806  0.00  0.00     0.002 A 
ATOM     15  C   UNL d   1      46.107 -14.877  44.599  0.00  0.00     0.030 A 
ATOM     16  C   UNL d   1      45.823 -14.101  44.539  0.00  0.00     0.140 A 
ATOM     17  F   UNL d   1      46.331 -13.490  44.333  0.00  0.00    -0.204 F 
ATOM     18  C   UNL d   1      45.024 -13.944  44.688  0.00  0.00     0.030 A 
ATOM     19  C   UNL d   1      44.515 -14.563  44.896  0.00  0.00     0.002 A 
ATOM     20  C   UNL d   1      44.800 -15.335  44.955  0.00  0.00     0.000 A 
ENDBRANCH  13  14
ENDBRANCH  12  13
ENDBRANCH   2  12
TORSDOF 3
ENDMDL
