MODEL 1
REMARK VINA RESULT:      27.0      0.000      0.000
REMARK  0 active torsions:
REMARK  status: ('A' for Active; 'I' for Inactive)
ROOT
ATOM      1  N   UNL d   1      59.013  49.707  50.235  0.00  0.00    -0.176 N 
ATOM      2  C   UNL d   1      58.952  49.707  51.057  0.00  0.00     0.167 A 
ATOM      3  N   UNL d   1      59.729  49.707  49.880  0.00  0.00    -0.150 NA
ATOM      4  C   UNL d   1      58.306  49.707  49.774  0.00  0.00     0.283 A 
ATOM      5  N   UNL d   1      58.184  49.708  51.414  0.00  0.00    -0.227 NA
ATOM      6  C   UNL d   1      60.430  49.707  50.340  0.00  0.00     0.159 A 
ATOM      7  C   UNL d   1      57.556  49.707  50.127  0.00  0.00     0.076 A 
ATOM      8  C   UNL d   1      59.607  49.708  51.519  0.00  0.00     0.038 A 
ATOM      9  C   UNL d   1      57.495  49.708  50.949  0.00  0.00     0.088 A 
ATOM     10  C   UNL d   1      60.369  49.707  51.163  0.00  0.00     0.033 A 
ATOM     11  O   UNL d   1      58.367  49.707  48.945  0.00  0.00    -0.265 OA
ATOM     12 CL   UNL d   1      61.151  49.707  49.985  0.00  0.00    -0.060 Cl
ATOM     13  C   UNL d   1      56.878  49.707  49.668  0.00  0.00     0.006 A 
ATOM     14  C   UNL d   1      59.546  49.708  52.342  0.00  0.00     0.003 A 
ATOM     15  C   UNL d   1      61.029  49.707  51.625  0.00  0.00     0.003 A 
ATOM     16  C   UNL d   1      56.756  49.708  51.308  0.00  0.00     0.019 A 
ATOM     17  C   UNL d   1      56.134  49.707  50.021  0.00  0.00     0.000 A 
ATOM     18  C   UNL d   1      60.246  49.708  52.808  0.00  0.00     0.000 A 
ATOM     19  C   UNL d   1      60.968  49.708  52.448  0.00  0.00     0.000 A 
ATOM     20  C   UNL d   1      56.072  49.708  50.844  0.00  0.00     0.002 A 
ENDROOT
TORSDOF 0
ENDMDL
MODEL 2
REMARK VINA RESULT:      29.0      1.133      1.820
REMARK  0 active torsions:
REMARK  status: ('A' for Active; 'I' for Inactive)
ROOT
ATOM      1  N   UNL d   1      58.608  49.707  51.172  0.00  0.00    -0.176 N 
ATOM      2  C   UNL d   1      58.982  49.707  50.437  0.00  0.00     0.167 A 
ATOM      3  N   UNL d   1      59.038  49.707  51.847  0.00  0.00    -0.150 NA
ATOM      4  C   UNL d   1      57.765  49.707  51.201  0.00  0.00     0.283 A 
ATOM      5  N   UNL d   1      58.510  49.707  49.735  0.00  0.00    -0.227 NA
ATOM      6  C   UNL d   1      59.876  49.708  51.816  0.00  0.00     0.159 A 
ATOM      7  C   UNL d   1      57.306  49.707  50.511  0.00  0.00     0.076 A 
ATOM      8  C   UNL d   1      59.782  49.707  50.381  0.00  0.00     0.038 A 
ATOM      9  C   UNL d   1      57.679  49.707  49.775  0.00  0.00     0.088 A 
ATOM     10  C   UNL d   1      60.249  49.707  51.080  0.00  0.00     0.033 A 
ATOM     11  O   UNL d   1      57.389  49.707  51.942  0.00  0.00    -0.265 OA
ATOM     12 CL   UNL d   1      60.309  49.708  52.492  0.00  0.00    -0.060 Cl
ATOM     13  C   UNL d   1      56.488  49.707  50.553  0.00  0.00     0.006 A 
ATOM     14  C   UNL d   1      60.155  49.707  49.645  0.00  0.00     0.003 A 
ATOM     15  C   UNL d   1      61.053  49.707  51.027  0.00  0.00     0.003 A 
ATOM     16  C   UNL d   1      57.233  49.707  49.087  0.00  0.00     0.019 A 
ATOM     17  C   UNL d   1      56.034  49.707  49.866  0.00  0.00     0.000 A 
ATOM     18  C   UNL d   1      60.996  49.707  49.609  0.00  0.00     0.000 A 
ATOM     19  C   UNL d   1      61.427  49.707  50.291  0.00  0.00     0.000 A 
ATOM     20  C   UNL d   1      56.408  49.707  49.130  0.00  0.00     0.002 A 
ENDROOT
TORSDOF 0
ENDMDL
