MODEL 1
REMARK VINA RESULT:      -2.9      0.000      0.000
REMARK  5 active torsions:
REMARK  status: ('A' for Active; 'I' for Inactive)
REMARK    1  A    between atoms: S_2  and  C_10 
REMARK    2  A    between atoms: N_7  and  S_2 
REMARK    3  A    between atoms: C_9  and  N_7 
REMARK    4  A    between atoms: O_23  and  C_16 
REMARK    5  A    between atoms: O_24  and  C_19 
ROOT
ATOM      1  S   UNL d   1      33.207  18.664 -23.329  0.00  0.00     0.285 S 
ATOM      2  O   UNL d   1      33.182  18.435 -22.539  0.00  0.00    -0.198 OA
ATOM      3  O   UNL d   1      33.232  18.894 -24.119  0.00  0.00    -0.198 OA
ENDROOT
BRANCH   1   4
ATOM      4  C   UNL d   1      33.187  19.455 -23.100  0.00  0.00     0.107 A 
ATOM      5  C   UNL d   1      33.113  19.651 -22.305  0.00  0.00     0.032 A 
ATOM      6  C   UNL d   1      33.093  20.445 -22.075  0.00  0.00     0.085 A 
ATOM      7  N   UNL d   1      33.024  20.809 -21.336  0.00  0.00    -0.256 N 
ATOM      8  C   UNL d   1      33.146  21.039 -22.640  0.00  0.00     0.085 A 
ATOM      9  C   UNL d   1      33.035  21.611 -21.444  0.00  0.00     0.339 A 
ATOM     10  C   UNL d   1      32.956  20.427 -20.606  0.00  0.00     0.104 C 
ATOM     11  N   UNL d   1      33.110  21.764 -22.249  0.00  0.00    -0.256 N 
ATOM     12  O   UNL d   1      32.980  22.183 -20.838  0.00  0.00    -0.245 OA
ATOM     13  C   UNL d   1      33.144  22.516 -22.600  0.00  0.00     0.104 C 
ATOM     14  C   UNL d   1      33.220  20.843 -23.439  0.00  0.00     0.020 A 
ATOM     15  C   UNL d   1      33.240  20.049 -23.669  0.00  0.00     0.015 A 
ENDBRANCH   1   4
BRANCH   1  16
ATOM     16  N   UNL d   1      33.227  17.874 -23.558  0.00  0.00    -0.156 NA
BRANCH  16  17
ATOM     17  C   UNL d   1      32.528  17.469 -23.704  0.00  0.00     0.118 A 
ATOM     18  C   UNL d   1      31.894  17.856 -24.060  0.00  0.00     0.046 A 
ATOM     19  C   UNL d   1      31.195  17.450 -24.206  0.00  0.00     0.096 A 
ATOM     20  C   UNL d   1      31.123  16.647 -23.996  0.00  0.00     0.026 A 
ATOM     21  C   UNL d   1      31.757  16.261 -23.641  0.00  0.00     0.028 A 
ATOM     22  C   UNL d   1      32.461  16.674 -23.495  0.00  0.00     0.113 A 
BRANCH  19  23
ATOM     23  O   UNL d   1      30.565  17.843 -24.562  0.00  0.00    -0.328 OA
ATOM     24  C   UNL d   1      29.791  17.630 -24.384  0.00  0.00     0.181 C 
ENDBRANCH  19  23
BRANCH  22  25
ATOM     25  O   UNL d   1      33.095  16.288 -23.139  0.00  0.00    -0.327 OA
ATOM     26  C   UNL d   1      33.162  15.471 -23.194  0.00  0.00     0.181 C 
ENDBRANCH  22  25
ENDBRANCH  16  17
ENDBRANCH   1  16
TORSDOF 5
ENDMDL
