MODEL 1
REMARK VINA RESULT:      -3.8      0.000      0.000
REMARK  4 active torsions:
REMARK  status: ('A' for Active; 'I' for Inactive)
REMARK    1  A    between atoms: C_6  and  N_1 
REMARK    2  A    between atoms: C_8  and  C_14 
REMARK    3  A    between atoms: O_20  and  C_8 
REMARK    4  A    between atoms: C_22  and  O_20 
ROOT
ATOM      1  N   UNL d   1     -41.770-122.622 -52.633  0.00  0.00    -0.242 N 
ATOM      2  C   UNL d   1     -42.109-121.937 -53.004  0.00  0.00     0.267 A 
ATOM      3  C   UNL d   1     -41.490-123.097 -53.114  0.00  0.00     0.267 A 
ATOM      4  C   UNL d   1     -41.987-122.075 -53.808  0.00  0.00     0.061 A 
ATOM      5  C   UNL d   1     -41.594-122.811 -53.878  0.00  0.00     0.061 A 
ATOM      6  C   UNL d   1     -41.385-123.121 -54.625  0.00  0.00     0.005 A 
ATOM      7  C   UNL d   1     -42.165-121.657 -54.486  0.00  0.00     0.005 A 
ATOM      8  O   UNL d   1     -42.473-121.286 -52.670  0.00  0.00    -0.267 OA
ATOM      9  O   UNL d   1     -41.123-123.817 -52.912  0.00  0.00    -0.267 OA
ATOM     10  C   UNL d   1     -41.582-122.670 -55.282  0.00  0.00     0.000 A 
ATOM     11  C   UNL d   1     -41.975-121.934 -55.212  0.00  0.00     0.000 A 
ATOM     12  C   UNL d   1     -42.153-121.517 -55.889  0.00  0.00     0.000 C 
ENDROOT
BRANCH   1  13
ATOM     13  C   UNL d   1     -41.743-122.768 -51.822  0.00  0.00     0.070 A 
ATOM     14  C   UNL d   1     -42.210-123.361 -51.481  0.00  0.00     0.018 A 
ATOM     15  C   UNL d   1     -42.182-123.508 -50.670  0.00  0.00     0.007 A 
ATOM     16  C   UNL d   1     -41.690-123.070 -50.178  0.00  0.00     0.064 A 
ATOM     17  C   UNL d   1     -41.195-122.446 -50.520  0.00  0.00     0.007 A 
ATOM     18  C   UNL d   1     -41.244-122.314 -51.372  0.00  0.00     0.018 A 
BRANCH  16  19
ATOM     19  C   UNL d   1     -41.696-123.253 -49.370  0.00  0.00     0.300 C 
ATOM     20  O   UNL d   1     -41.123-123.802 -49.068  0.00  0.00    -0.259 OA
BRANCH  19  21
ATOM     21  O   UNL d   1     -42.233-122.911 -48.909  0.00  0.00    -0.271 OA
BRANCH  21  22
ATOM     22  C   UNL d   1     -42.195-123.024 -48.121  0.00  0.00     0.126 C 
ATOM     23  C   UNL d   1     -42.681-122.572 -47.590  0.00  0.00     0.029 C 
ENDBRANCH  21  22
ENDBRANCH  19  21
ENDBRANCH  16  19
ENDBRANCH   1  13
TORSDOF 4
ENDMDL
MODEL 2
REMARK VINA RESULT:      -3.5      1.196      5.027
REMARK  4 active torsions:
REMARK  status: ('A' for Active; 'I' for Inactive)
REMARK    1  A    between atoms: C_6  and  N_1 
REMARK    2  A    between atoms: C_8  and  C_14 
REMARK    3  A    between atoms: O_20  and  C_8 
REMARK    4  A    between atoms: C_22  and  O_20 
ROOT
ATOM      1  N   UNL d   1     -42.095-122.915 -50.109  0.00  0.00    -0.242 N 
ATOM      2  C   UNL d   1     -41.736-122.551 -49.431  0.00  0.00     0.267 A 
ATOM      3  C   UNL d   1     -42.638-123.374 -49.932  0.00  0.00     0.267 A 
ATOM      4  C   UNL d   1     -42.157-122.870 -48.797  0.00  0.00     0.061 A 
ATOM      5  C   UNL d   1     -42.729-123.392 -49.115  0.00  0.00     0.061 A 
ATOM      6  C   UNL d   1     -43.255-123.813 -48.620  0.00  0.00     0.005 A 
ATOM      7  C   UNL d   1     -42.118-122.774 -47.988  0.00  0.00     0.005 A 
ATOM      8  O   UNL d   1     -41.123-122.013 -49.388  0.00  0.00    -0.267 OA
ATOM      9  O   UNL d   1     -43.089-123.809 -50.481  0.00  0.00    -0.267 OA
ATOM     10  C   UNL d   1     -43.182-123.689 -47.812  0.00  0.00     0.000 A 
ATOM     11  C   UNL d   1     -42.611-123.166 -47.494  0.00  0.00     0.000 A 
ATOM     12  C   UNL d   1     -42.571-123.070 -46.686  0.00  0.00     0.000 C 
ENDROOT
BRANCH   1  13
ATOM     13  C   UNL d   1     -41.882-122.789 -50.895  0.00  0.00     0.070 A 
ATOM     14  C   UNL d   1     -42.103-122.095 -51.290  0.00  0.00     0.018 A 
ATOM     15  C   UNL d   1     -41.890-121.969 -52.076  0.00  0.00     0.007 A 
ATOM     16  C   UNL d   1     -41.452-122.527 -52.490  0.00  0.00     0.064 A 
ATOM     17  C   UNL d   1     -41.213-123.259 -52.091  0.00  0.00     0.007 A 
ATOM     18  C   UNL d   1     -41.449-123.366 -51.268  0.00  0.00     0.018 A 
BRANCH  16  19
ATOM     19  C   UNL d   1     -41.260-122.357 -53.279  0.00  0.00     0.300 C 
ATOM     20  O   UNL d   1     -41.169-121.547 -53.514  0.00  0.00    -0.259 OA
BRANCH  19  21
ATOM     21  O   UNL d   1     -41.170-122.954 -53.782  0.00  0.00    -0.271 OA
BRANCH  21  22
ATOM     22  C   UNL d   1     -41.277-122.823 -54.561  0.00  0.00     0.126 C 
ATOM     23  C   UNL d   1     -41.145-123.439 -55.131  0.00  0.00     0.029 C 
ENDBRANCH  21  22
ENDBRANCH  19  21
ENDBRANCH  16  19
ENDBRANCH   1  13
TORSDOF 4
ENDMDL
