MODEL 1
REMARK VINA RESULT:      -2.6      0.000      0.000
REMARK  4 active torsions:
REMARK  status: ('A' for Active; 'I' for Inactive)
REMARK    1  A    between atoms: C_7  and  N_1 
REMARK    2  A    between atoms: C_9  and  C_7 
REMARK       I    between atoms: N_16  and  C_9 
REMARK    3  A    between atoms: C_21  and  N_16 
REMARK    4  A    between atoms: C_20  and  C_21 
ROOT
ATOM      1  C   UNL d   1      33.091  17.997 -24.086  0.00  0.00     0.146 C 
ENDROOT
BRANCH   1   2
ATOM      2  N   UNL d   1      32.377  17.634 -24.255  0.00  0.00    -0.269 N 
ATOM      3  C   UNL d   1      31.849  18.036 -24.735  0.00  0.00     0.265 A 
ATOM      4  C   UNL d   1      31.070  17.752 -24.979  0.00  0.00     0.068 A 
ATOM      5  O   UNL d   1      32.091  18.790 -25.011  0.00  0.00    -0.267 OA
ATOM      6  C   UNL d   1      30.697  17.014 -24.777  0.00  0.00     0.034 A 
ATOM      7  C   UNL d   1      29.955  16.884 -25.083  0.00  0.00     0.007 C 
ATOM      8  S   UNL d   1      31.007  16.419 -24.305  0.00  0.00    -0.085 SA
ATOM      9  C   UNL d   1      31.634  16.432 -23.995  0.00  0.00     0.046 A 
ATOM     10  C   UNL d   1      32.274  16.978 -23.960  0.00  0.00     0.073 A 
ATOM     11  C   UNL d   1      31.693  15.705 -23.580  0.00  0.00     0.008 A 
ATOM     12  C   UNL d   1      32.958  16.802 -23.521  0.00  0.00     0.018 A 
ATOM     13  C   UNL d   1      33.013  16.080 -23.111  0.00  0.00     0.002 A 
ATOM     14  C   UNL d   1      32.377  15.528 -23.141  0.00  0.00     0.001 A 
ENDBRANCH   1   2
BRANCH   1  15
ATOM     15  C   UNL d   1      33.114  18.814 -23.992  0.00  0.00     0.297 C 
ATOM     16  N   UNL d   1      33.218  19.152 -23.259  0.00  0.00    -0.205 NA
ATOM     17  O   UNL d   1      33.031  19.293 -24.651  0.00  0.00    -0.264 OA
BRANCH  16  18
ATOM     18  C   UNL d   1      33.239  19.957 -23.173  0.00  0.00     0.102 C 
BRANCH  18  19
ATOM     19  C   UNL d   1      33.176  20.294 -22.431  0.00  0.00     0.021 A 
ATOM     20  C   UNL d   1      33.051  21.105 -22.364  0.00  0.00     0.028 A 
ATOM     21  C   UNL d   1      32.987  21.445 -21.610  0.00  0.00     0.119 A 
ATOM     22  O   UNL d   1      32.867  22.203 -21.364  0.00  0.00    -0.300 OA
ATOM     23  C   UNL d   1      33.050  20.971 -20.949  0.00  0.00     0.119 A 
ATOM     24  C   UNL d   1      32.853  22.210 -20.549  0.00  0.00     0.304 A 
ATOM     25  O   UNL d   1      32.967  21.448 -20.286  0.00  0.00    -0.300 OA
ATOM     26  C   UNL d   1      33.176  20.159 -21.032  0.00  0.00     0.026 A 
ATOM     27  C   UNL d   1      33.238  19.830 -21.778  0.00  0.00     0.004 A 
ENDBRANCH  18  19
ENDBRANCH  16  18
ENDBRANCH   1  15
TORSDOF 4
ENDMDL
MODEL 2
REMARK VINA RESULT:      -2.0      1.081      2.041
REMARK  4 active torsions:
REMARK  status: ('A' for Active; 'I' for Inactive)
REMARK    1  A    between atoms: C_7  and  N_1 
REMARK    2  A    between atoms: C_9  and  C_7 
REMARK       I    between atoms: N_16  and  C_9 
REMARK    3  A    between atoms: C_21  and  N_16 
REMARK    4  A    between atoms: C_20  and  C_21 
ROOT
ATOM      1  C   UNL d   1      32.057  18.556 -22.861  0.00  0.00     0.146 C 
ENDROOT
BRANCH   1   2
ATOM      2  N   UNL d   1      32.246  17.859 -23.247  0.00  0.00    -0.269 N 
ATOM      3  C   UNL d   1      32.859  17.408 -22.944  0.00  0.00     0.265 A 
ATOM      4  C   UNL d   1      33.143  16.659 -23.267  0.00  0.00     0.068 A 
ATOM      5  O   UNL d   1      33.241  17.705 -22.259  0.00  0.00    -0.267 OA
ATOM      6  C   UNL d   1      32.854  16.242 -23.951  0.00  0.00     0.034 A 
ATOM      7  C   UNL d   1      33.224  15.542 -24.136  0.00  0.00     0.007 C 
ATOM      8  S   UNL d   1      32.241  16.472 -24.445  0.00  0.00    -0.085 SA
ATOM      9  C   UNL d   1      31.859  17.054 -24.374  0.00  0.00     0.046 A 
ATOM     10  C   UNL d   1      31.847  17.700 -23.833  0.00  0.00     0.073 A 
ATOM     11  C   UNL d   1      31.309  17.039 -25.007  0.00  0.00     0.008 A 
ATOM     12  C   UNL d   1      31.296  18.317 -23.923  0.00  0.00     0.018 A 
ATOM     13  C   UNL d   1      30.752  18.298 -24.552  0.00  0.00     0.002 A 
ATOM     14  C   UNL d   1      30.758  17.656 -25.097  0.00  0.00     0.001 A 
ENDBRANCH   1   2
BRANCH   1  15
ATOM     15  C   UNL d   1      32.621  19.153 -22.813  0.00  0.00     0.297 C 
ATOM     16  N   UNL d   1      32.572  19.735 -22.245  0.00  0.00    -0.205 NA
ATOM     17  O   UNL d   1      33.241  19.161 -23.348  0.00  0.00    -0.264 OA
BRANCH  16  18
ATOM     18  C   UNL d   1      33.129  20.321 -22.203  0.00  0.00     0.102 C 
BRANCH  18  19
ATOM     19  C   UNL d   1      32.923  21.068 -21.945  0.00  0.00     0.021 A 
ATOM     20  C   UNL d   1      32.697  21.178 -21.162  0.00  0.00     0.028 A 
ATOM     21  C   UNL d   1      32.487  21.938 -20.902  0.00  0.00     0.119 A 
ATOM     22  O   UNL d   1      32.247  22.220 -20.187  0.00  0.00    -0.300 OA
ATOM     23  C   UNL d   1      32.509  22.561 -21.427  0.00  0.00     0.119 A 
ATOM     24  C   UNL d   1      32.116  23.022 -20.257  0.00  0.00     0.304 A 
ATOM     25  O   UNL d   1      32.277  23.239 -21.025  0.00  0.00    -0.300 OA
ATOM     26  C   UNL d   1      32.737  22.436 -22.210  0.00  0.00     0.026 A 
ATOM     27  C   UNL d   1      32.943  21.685 -22.460  0.00  0.00     0.004 A 
ENDBRANCH  18  19
ENDBRANCH  16  18
ENDBRANCH   1  15
TORSDOF 4
ENDMDL
MODEL 3
REMARK VINA RESULT:      -0.5      1.958      5.220
REMARK  4 active torsions:
REMARK  status: ('A' for Active; 'I' for Inactive)
REMARK    1  A    between atoms: C_7  and  N_1 
REMARK    2  A    between atoms: C_9  and  C_7 
REMARK       I    between atoms: N_16  and  C_9 
REMARK    3  A    between atoms: C_21  and  N_16 
REMARK    4  A    between atoms: C_20  and  C_21 
ROOT
ATOM      1  C   UNL d   1      32.423  20.304 -21.970  0.00  0.00     0.146 C 
ENDROOT
BRANCH   1   2
ATOM      2  N   UNL d   1      32.612  21.100 -21.941  0.00  0.00    -0.269 N 
ATOM      3  C   UNL d   1      32.561  21.530 -22.636  0.00  0.00     0.265 A 
ATOM      4  C   UNL d   1      32.735  22.372 -22.723  0.00  0.00     0.068 A 
ATOM      5  O   UNL d   1      32.318  21.112 -23.321  0.00  0.00    -0.267 OA
ATOM      6  C   UNL d   1      32.989  22.918 -22.120  0.00  0.00     0.034 A 
ATOM      7  C   UNL d   1      33.115  23.687 -22.353  0.00  0.00     0.007 C 
ATOM      8  S   UNL d   1      33.120  22.750 -21.329  0.00  0.00    -0.085 SA
ATOM      9  C   UNL d   1      33.041  22.123 -21.028  0.00  0.00     0.046 A 
ATOM     10  C   UNL d   1      32.810  21.358 -21.291  0.00  0.00     0.073 A 
ATOM     11  C   UNL d   1      33.240  22.237 -20.220  0.00  0.00     0.008 A 
ATOM     12  C   UNL d   1      32.777  20.719 -20.759  0.00  0.00     0.018 A 
ATOM     13  C   UNL d   1      32.975  20.835 -19.959  0.00  0.00     0.002 A 
ATOM     14  C   UNL d   1      33.208  21.597 -19.689  0.00  0.00     0.001 A 
ENDBRANCH   1   2
BRANCH   1  15
ATOM     15  C   UNL d   1      32.791  19.825 -22.529  0.00  0.00     0.297 C 
ATOM     16  N   UNL d   1      32.719  19.014 -22.503  0.00  0.00    -0.205 NA
ATOM     17  O   UNL d   1      33.238  20.172 -23.120  0.00  0.00    -0.264 OA
BRANCH  16  18
ATOM     18  C   UNL d   1      33.084  18.547 -23.055  0.00  0.00     0.102 C 
BRANCH  18  19
ATOM     19  C   UNL d   1      32.772  17.817 -23.247  0.00  0.00     0.021 A 
ATOM     20  C   UNL d   1      32.116  17.774 -23.742  0.00  0.00     0.028 A 
ATOM     21  C   UNL d   1      31.802  17.031 -23.936  0.00  0.00     0.119 A 
ATOM     22  O   UNL d   1      31.179  16.808 -24.396  0.00  0.00    -0.300 OA
ATOM     23  C   UNL d   1      32.147  16.358 -23.633  0.00  0.00     0.119 A 
ATOM     24  C   UNL d   1      31.129  15.995 -24.385  0.00  0.00     0.304 A 
ATOM     25  O   UNL d   1      31.728  15.709 -23.913  0.00  0.00    -0.300 OA
ATOM     26  C   UNL d   1      32.805  16.416 -23.137  0.00  0.00     0.026 A 
ATOM     27  C   UNL d   1      33.110  17.151 -22.950  0.00  0.00     0.004 A 
ENDBRANCH  18  19
ENDBRANCH  16  18
ENDBRANCH   1  15
TORSDOF 4
ENDMDL
MODEL 4
REMARK VINA RESULT:      -0.2      2.000      4.634
REMARK  4 active torsions:
REMARK  status: ('A' for Active; 'I' for Inactive)
REMARK    1  A    between atoms: C_7  and  N_1 
REMARK    2  A    between atoms: C_9  and  C_7 
REMARK       I    between atoms: N_16  and  C_9 
REMARK    3  A    between atoms: C_21  and  N_16 
REMARK    4  A    between atoms: C_20  and  C_21 
ROOT
ATOM      1  C   UNL d   1      33.049  18.378 -23.751  0.00  0.00     0.146 C 
ENDROOT
BRANCH   1   2
ATOM      2  N   UNL d   1      33.098  19.193 -23.687  0.00  0.00    -0.269 N 
ATOM      3  C   UNL d   1      33.097  19.631 -24.379  0.00  0.00     0.265 A 
ATOM      4  C   UNL d   1      33.145  20.492 -24.432  0.00  0.00     0.068 A 
ATOM      5  O   UNL d   1      33.046  19.201 -25.097  0.00  0.00    -0.267 OA
ATOM      6  C   UNL d   1      33.200  21.053 -23.793  0.00  0.00     0.034 A 
ATOM      7  C   UNL d   1      33.237  21.838 -23.998  0.00  0.00     0.007 C 
ATOM      8  S   UNL d   1      33.220  20.884 -22.991  0.00  0.00    -0.085 SA
ATOM      9  C   UNL d   1      33.193  20.243 -22.710  0.00  0.00     0.046 A 
ATOM     10  C   UNL d   1      33.138  19.459 -23.012  0.00  0.00     0.073 A 
ATOM     11  C   UNL d   1      33.231  20.361 -21.880  0.00  0.00     0.008 A 
ATOM     12  C   UNL d   1      33.119  18.806 -22.496  0.00  0.00     0.018 A 
ATOM     13  C   UNL d   1      33.156  18.928 -21.674  0.00  0.00     0.002 A 
ATOM     14  C   UNL d   1      33.212  19.709 -21.364  0.00  0.00     0.001 A 
ENDBRANCH   1   2
BRANCH   1  15
ATOM     15  C   UNL d   1      32.519  18.049 -24.287  0.00  0.00     0.297 C 
ATOM     16  N   UNL d   1      31.831  17.693 -24.036  0.00  0.00    -0.205 NA
ATOM     17  O   UNL d   1      32.688  18.082 -25.088  0.00  0.00    -0.264 OA
BRANCH  16  18
ATOM     18  C   UNL d   1      31.312  17.371 -24.568  0.00  0.00     0.102 C 
BRANCH  18  19
ATOM     19  C   UNL d   1      30.614  17.033 -24.311  0.00  0.00     0.021 A 
ATOM     20  C   UNL d   1      29.921  17.477 -24.328  0.00  0.00     0.028 A 
ATOM     21  C   UNL d   1      29.212  17.132 -24.066  0.00  0.00     0.119 A 
ATOM     22  O   UNL d   1      28.459  17.413 -24.014  0.00  0.00    -0.300 OA
ATOM     23  C   UNL d   1      29.216  16.363 -23.796  0.00  0.00     0.119 A 
ATOM     24  C   UNL d   1      27.985  16.822 -23.712  0.00  0.00     0.304 A 
ATOM     25  O   UNL d   1      28.449  16.168 -23.575  0.00  0.00    -0.300 OA
ATOM     26  C   UNL d   1      29.919  15.930 -23.785  0.00  0.00     0.026 A 
ATOM     27  C   UNL d   1      30.614  16.276 -24.045  0.00  0.00     0.004 A 
ENDBRANCH  18  19
ENDBRANCH  16  18
ENDBRANCH   1  15
TORSDOF 4
ENDMDL
