MODEL 1
REMARK VINA RESULT:      13.4      0.000      0.000
REMARK  4 active torsions:
REMARK  status: ('A' for Active; 'I' for Inactive)
REMARK    1  A    between atoms: C_14  and  N_1 
REMARK    2  A    between atoms: S_12  and  C_2 
REMARK    3  A    between atoms: C_9  and  C_17 
REMARK    4  A    between atoms: C_17  and  S_12 
ROOT
ATOM      1  S   UNL d   1      46.097 -17.818  44.150  0.00  0.00    -0.045 SA
ENDROOT
BRANCH   1   2
ATOM      2  C   UNL d   1      46.292 -18.609  44.245  0.00  0.00     0.219 A 
ATOM      3  N   UNL d   1      46.487 -19.124  43.646  0.00  0.00    -0.186 N 
ATOM      4  N   UNL d   1      46.641 -19.851  43.978  0.00  0.00    -0.038 NA
ATOM      5  N   UNL d   1      46.540 -19.788  44.789  0.00  0.00    -0.022 NA
ATOM      6  N   UNL d   1      46.322 -19.007  44.953  0.00  0.00    -0.101 NA
BRANCH   3   7
ATOM      7  C   UNL d   1      46.524 -18.943  42.844  0.00  0.00     0.087 A 
ATOM      8  C   UNL d   1      46.473 -18.161  42.596  0.00  0.00     0.019 A 
ATOM      9  C   UNL d   1      46.509 -17.981  41.798  0.00  0.00     0.002 A 
ATOM     10  C   UNL d   1      46.596 -18.583  41.240  0.00  0.00     0.000 A 
ATOM     11  C   UNL d   1      46.647 -19.365  41.490  0.00  0.00     0.002 A 
ATOM     12  C   UNL d   1      46.611 -19.545  42.292  0.00  0.00     0.019 A 
ENDBRANCH   3   7
ENDBRANCH   1   2
BRANCH   1  13
ATOM     13  C   UNL d   1      45.833 -17.399  44.781  0.00  0.00     0.059 C 
BRANCH  13  14
ATOM     14  C   UNL d   1      45.782 -16.588  44.728  0.00  0.00     0.107 A 
ATOM     15  N   UNL d   1      46.423 -16.077  44.564  0.00  0.00    -0.226 NA
ATOM     16  C   UNL d   1      46.108 -15.279  44.564  0.00  0.00     0.148 A 
ATOM     17  C   UNL d   1      46.480 -14.537  44.434  0.00  0.00     0.037 A 
ATOM     18  N   UNL d   1      45.287 -15.321  44.728  0.00  0.00    -0.289 N 
ATOM     19  C   UNL d   1      46.017 -13.842  44.471  0.00  0.00     0.005 A 
ATOM     20  C   UNL d   1      45.196 -13.883  44.635  0.00  0.00     0.018 A 
ATOM     21  C   UNL d   1      44.833 -14.620  44.763  0.00  0.00     0.066 A 
ATOM     22  C   UNL d   1      44.021 -14.661  44.925  0.00  0.00     0.019 C 
ATOM     23  C   UNL d   1      45.085 -16.144  44.831  0.00  0.00     0.101 A 
ENDBRANCH  13  14
ENDBRANCH   1  13
TORSDOF 4
ENDMDL
