MODEL 1
REMARK VINA RESULT:      -9.0      0.000      0.000
REMARK  5 active torsions:
REMARK  status: ('A' for Active; 'I' for Inactive)
REMARK    1  A    between atoms: C_7  and  S_1 
REMARK    2  A    between atoms: N_8  and  S_1 
REMARK    3  A    between atoms: S_2  and  N_4 
REMARK    4  A    between atoms: C_12  and  S_2 
REMARK    5  A    between atoms: N_4  and  C_3 
ROOT
ATOM      1  C   UNL d   1      50.406  34.575  52.984  0.00  0.00     0.206 A 
ATOM      2  N   UNL d   1      51.172  34.862  52.855  0.00  0.00    -0.220 NA
ATOM      3  S   UNL d   1      50.468  33.771  53.175  0.00  0.00    -0.046 SA
ATOM      4  C   UNL d   1      52.484  32.810  53.251  0.00  0.00     0.105 A 
ATOM      5  C   UNL d   1      51.272  33.567  53.162  0.00  0.00     0.051 A 
ATOM      6  C   UNL d   1      51.705  34.240  52.964  0.00  0.00     0.090 A 
ATOM      7  C   UNL d   1      51.662  32.850  53.306  0.00  0.00     0.021 A 
ATOM      8  C   UNL d   1      52.915  33.494  53.051  0.00  0.00     0.015 A 
ATOM      9  C   UNL d   1      52.527  34.201  52.909  0.00  0.00     0.020 A 
ENDROOT
BRANCH   1  10
ATOM     10  N   UNL d   1      49.707  35.010  52.933  0.00  0.00    -0.132 NA
BRANCH  10  11
ATOM     11  S   UNL d   1      49.009  35.197  52.538  0.00  0.00     0.287 S 
ATOM     12  O   UNL d   1      49.261  34.761  51.887  0.00  0.00    -0.198 OA
ATOM     13  O   UNL d   1      48.950  35.571  53.274  0.00  0.00    -0.198 OA
BRANCH  11  14
ATOM     14  C   UNL d   1      48.279  35.577  52.523  0.00  0.00     0.105 A 
ATOM     15  C   UNL d   1      47.806  35.526  51.841  0.00  0.00     0.015 A 
ATOM     16  C   UNL d   1      47.073  35.903  51.813  0.00  0.00     0.030 A 
ATOM     17  C   UNL d   1      46.804  36.332  52.461  0.00  0.00     0.140 A 
ATOM     18  C   UNL d   1      47.269  36.387  53.144  0.00  0.00     0.030 A 
ATOM     19  F   UNL d   1      46.071  36.709  52.435  0.00  0.00    -0.204 F 
ATOM     20  C   UNL d   1      48.009  36.005  53.167  0.00  0.00     0.015 A 
ENDBRANCH  11  14
ENDBRANCH  10  11
ENDBRANCH   1  10
BRANCH   4  21
ATOM     21  S   UNL d   1      52.874  32.106  53.392  0.00  0.00     0.271 S 
ATOM     22  O   UNL d   1      53.341  32.311  54.240  0.00  0.00    -0.200 OA
ATOM     23  O   UNL d   1      52.432  31.814  52.526  0.00  0.00    -0.200 OA
BRANCH  21  24
ATOM     24  N   UNL d   1      53.174  31.326  53.347  0.00  0.00    -0.229 N 
ATOM     25  C   UNL d   1      52.820  30.685  52.964  0.00  0.00     0.092 A 
ATOM     26  C   UNL d   1      53.314  30.032  53.065  0.00  0.00     0.021 A 
ATOM     27  C   UNL d   1      53.971  30.263  53.507  0.00  0.00     0.021 A 
ATOM     28  C   UNL d   1      53.887  31.066  53.683  0.00  0.00     0.092 A 
ENDBRANCH  21  24
ENDBRANCH   4  21
TORSDOF 5
ENDMDL
MODEL 2
REMARK VINA RESULT:      -8.8      2.450      6.133
REMARK  5 active torsions:
REMARK  status: ('A' for Active; 'I' for Inactive)
REMARK    1  A    between atoms: C_7  and  S_1 
REMARK    2  A    between atoms: N_8  and  S_1 
REMARK    3  A    between atoms: S_2  and  N_4 
REMARK    4  A    between atoms: C_12  and  S_2 
REMARK    5  A    between atoms: N_4  and  C_3 
ROOT
ATOM      1  C   UNL d   1      50.895  34.104  52.789  0.00  0.00     0.206 A 
ATOM      2  N   UNL d   1      50.685  34.023  51.992  0.00  0.00    -0.220 NA
ATOM      3  S   UNL d   1      50.288  34.522  53.167  0.00  0.00    -0.046 SA
ATOM      4  C   UNL d   1      48.510  35.187  51.987  0.00  0.00     0.105 A 
ATOM      5  C   UNL d   1      49.707  34.695  52.600  0.00  0.00     0.051 A 
ATOM      6  C   UNL d   1      49.953  34.387  51.877  0.00  0.00     0.090 A 
ATOM      7  C   UNL d   1      48.983  35.097  52.656  0.00  0.00     0.021 A 
ATOM      8  C   UNL d   1      48.766  34.874  51.259  0.00  0.00     0.015 A 
ATOM      9  C   UNL d   1      49.481  34.478  51.206  0.00  0.00     0.020 A 
ENDROOT
BRANCH   1  10
ATOM     10  N   UNL d   1      51.584  33.821  53.144  0.00  0.00    -0.132 NA
BRANCH  10  11
ATOM     11  S   UNL d   1      52.343  33.951  53.434  0.00  0.00     0.287 S 
ATOM     12  O   UNL d   1      52.385  34.656  53.012  0.00  0.00    -0.198 OA
ATOM     13  O   UNL d   1      52.103  33.233  53.767  0.00  0.00    -0.198 OA
BRANCH  11  14
ATOM     14  C   UNL d   1      52.981  33.710  53.897  0.00  0.00     0.105 A 
ATOM     15  C   UNL d   1      53.256  34.208  54.503  0.00  0.00     0.015 A 
ATOM     16  C   UNL d   1      53.893  33.977  54.974  0.00  0.00     0.030 A 
ATOM     17  C   UNL d   1      54.261  33.253  54.846  0.00  0.00     0.140 A 
ATOM     18  C   UNL d   1      53.992  32.752  54.244  0.00  0.00     0.030 A 
ATOM     19  F   UNL d   1      54.898  33.022  55.316  0.00  0.00    -0.204 F 
ATOM     20  C   UNL d   1      53.348  32.989  53.772  0.00  0.00     0.015 A 
ENDBRANCH  11  14
ENDBRANCH  10  11
ENDBRANCH   1  10
BRANCH   4  21
ATOM     21  S   UNL d   1      47.797  35.582  52.036  0.00  0.00     0.271 S 
ATOM     22  O   UNL d   1      48.031  36.329  52.642  0.00  0.00    -0.200 OA
ATOM     23  O   UNL d   1      47.474  34.850  51.411  0.00  0.00    -0.200 OA
BRANCH  21  24
ATOM     24  N   UNL d   1      47.000  35.824  51.949  0.00  0.00    -0.229 N 
ATOM     25  C   UNL d   1      46.470  35.569  51.369  0.00  0.00     0.092 A 
ATOM     26  C   UNL d   1      45.753  35.954  51.502  0.00  0.00     0.021 A 
ATOM     27  C   UNL d   1      45.834  36.445  52.160  0.00  0.00     0.021 A 
ATOM     28  C   UNL d   1      46.608  36.367  52.440  0.00  0.00     0.092 A 
ENDBRANCH  21  24
ENDBRANCH   4  21
TORSDOF 5
ENDMDL
MODEL 3
REMARK VINA RESULT:      -6.2      9.932     11.267
REMARK  5 active torsions:
REMARK  status: ('A' for Active; 'I' for Inactive)
REMARK    1  A    between atoms: C_7  and  S_1 
REMARK    2  A    between atoms: N_8  and  S_1 
REMARK    3  A    between atoms: S_2  and  N_4 
REMARK    4  A    between atoms: C_12  and  S_2 
REMARK    5  A    between atoms: N_4  and  C_3 
ROOT
ATOM      1  C   UNL d   1      44.743  26.197  56.447  0.00  0.00     0.206 A 
ATOM      2  N   UNL d   1      45.222  26.274  57.118  0.00  0.00    -0.220 NA
ATOM      3  S   UNL d   1      44.397  26.935  56.301  0.00  0.00    -0.046 SA
ATOM      4  C   UNL d   1      44.860  28.656  57.649  0.00  0.00     0.105 A 
ATOM      5  C   UNL d   1      44.665  27.463  56.882  0.00  0.00     0.051 A 
ATOM      6  C   UNL d   1      45.174  27.054  57.385  0.00  0.00     0.090 A 
ATOM      7  C   UNL d   1      44.507  28.266  57.014  0.00  0.00     0.021 A 
ATOM      8  C   UNL d   1      45.373  28.237  58.154  0.00  0.00     0.015 A 
ATOM      9  C   UNL d   1      45.527  27.443  58.021  0.00  0.00     0.020 A 
ENDROOT
BRANCH   1  10
ATOM     10  N   UNL d   1      44.630  25.510  56.005  0.00  0.00    -0.132 NA
BRANCH  10  11
ATOM     11  S   UNL d   1      44.632  24.689  55.947  0.00  0.00     0.287 S 
ATOM     12  O   UNL d   1      44.324  24.634  56.707  0.00  0.00    -0.198 OA
ATOM     13  O   UNL d   1      44.931  24.960  55.224  0.00  0.00    -0.198 OA
BRANCH  11  14
ATOM     14  C   UNL d   1      44.790  24.006  55.515  0.00  0.00     0.105 A 
ATOM     15  C   UNL d   1      45.086  23.335  55.906  0.00  0.00     0.015 A 
ATOM     16  C   UNL d   1      45.248  22.644  55.484  0.00  0.00     0.030 A 
ATOM     17  C   UNL d   1      45.117  22.615  54.673  0.00  0.00     0.140 A 
ATOM     18  C   UNL d   1      44.822  23.279  54.277  0.00  0.00     0.030 A 
ATOM     19  F   UNL d   1      45.278  21.926  54.251  0.00  0.00    -0.204 F 
ATOM     20  C   UNL d   1      44.660  23.974  54.707  0.00  0.00     0.015 A 
ENDBRANCH  11  14
ENDBRANCH  10  11
ENDBRANCH   1  10
BRANCH   4  21
ATOM     21  S   UNL d   1      44.708  29.447  57.784  0.00  0.00     0.271 S 
ATOM     22  O   UNL d   1      44.314  29.416  58.692  0.00  0.00    -0.200 OA
ATOM     23  O   UNL d   1      45.101  29.569  56.856  0.00  0.00    -0.200 OA
BRANCH  21  24
ATOM     24  N   UNL d   1      44.640  30.279  57.719  0.00  0.00    -0.229 N 
ATOM     25  C   UNL d   1      44.667  30.721  57.021  0.00  0.00     0.092 A 
ATOM     26  C   UNL d   1      44.576  31.514  57.227  0.00  0.00     0.021 A 
ATOM     27  C   UNL d   1      44.492  31.568  58.045  0.00  0.00     0.021 A 
ATOM     28  C   UNL d   1      44.532  30.802  58.354  0.00  0.00     0.092 A 
ENDBRANCH  21  24
ENDBRANCH   4  21
TORSDOF 5
ENDMDL
