MODEL 1
REMARK VINA RESULT:      -1.3      0.000      0.000
REMARK  5 active torsions:
REMARK  status: ('A' for Active; 'I' for Inactive)
REMARK    1  A    between atoms: C_10  and  N_1 
REMARK    2  A    between atoms: S_7  and  C_4 
REMARK    3  A    between atoms: C_9  and  C_6 
REMARK    4  A    between atoms: C_8  and  S_7 
REMARK    5  A    between atoms: N_14  and  C_13 
ROOT
ATOM      1  N   UNL d   1      33.062  19.725 -22.335  0.00  0.00    -0.241 N 
ATOM      2  C   UNL d   1      33.164  19.594 -21.551  0.00  0.00     0.268 A 
ATOM      3  C   UNL d   1      33.069  20.525 -22.501  0.00  0.00     0.273 A 
ATOM      4  C   UNL d   1      33.182  20.912 -21.780  0.00  0.00     0.091 A 
ATOM      5  C   UNL d   1      33.241  20.331 -21.189  0.00  0.00     0.072 A 
ATOM      6  O   UNL d   1      33.184  18.850 -21.202  0.00  0.00    -0.267 OA
ATOM      7  O   UNL d   1      32.979  20.874 -23.260  0.00  0.00    -0.266 OA
ENDROOT
BRANCH   4   8
ATOM      8  S   UNL d   1      33.213  21.725 -21.769  0.00  0.00    -0.082 SA
BRANCH   8   9
ATOM      9  C   UNL d   1      33.058  22.158 -21.064  0.00  0.00     0.035 A 
ATOM     10  C   UNL d   1      32.731  22.935 -21.099  0.00  0.00     0.070 A 
ATOM     11  C   UNL d   1      32.595  23.322 -20.385  0.00  0.00     0.007 A 
ATOM     12  C   UNL d   1      32.778  22.950 -19.660  0.00  0.00     0.000 A 
ATOM     13  C   UNL d   1      33.103  22.175 -19.647  0.00  0.00     0.001 A 
ATOM     14  C   UNL d   1      33.241  21.785 -20.350  0.00  0.00     0.007 A 
BRANCH  10  15
ATOM     15  C   UNL d   1      32.557  23.286 -21.801  0.00  0.00     0.211 C 
ATOM     16  O   UNL d   1      31.776  23.374 -22.029  0.00  0.00    -0.644 OA
ATOM     17  O   UNL d   1      33.131  23.567 -22.314  0.00  0.00    -0.644 OA
ENDBRANCH  10  15
ENDBRANCH   8   9
ENDBRANCH   4   8
BRANCH   1  18
ATOM     18  C   UNL d   1      32.964  19.062 -22.873  0.00  0.00     0.070 A 
ATOM     19  C   UNL d   1      33.240  19.109 -23.633  0.00  0.00     0.019 A 
ATOM     20  C   UNL d   1      33.138  18.459 -24.141  0.00  0.00     0.019 A 
ATOM     21  C   UNL d   1      32.760  17.779 -23.868  0.00  0.00     0.064 A 
ATOM     22  C   UNL d   1      32.481  17.735 -23.091  0.00  0.00     0.019 A 
ATOM     23  C   UNL d   1      32.581  18.376 -22.588  0.00  0.00     0.019 A 
BRANCH  21  24
ATOM     24  N   UNL d   1      32.660  17.141 -24.365  0.00  0.00    -0.301 N 
ATOM     25  C   UNL d   1      31.971  17.086 -24.818  0.00  0.00     0.100 C 
ATOM     26  C   UNL d   1      33.241  16.569 -24.407  0.00  0.00     0.100 C 
ENDBRANCH  21  24
ENDBRANCH   1  18
TORSDOF 5
ENDMDL
MODEL 2
REMARK VINA RESULT:      -0.6      1.782      5.397
REMARK  5 active torsions:
REMARK  status: ('A' for Active; 'I' for Inactive)
REMARK    1  A    between atoms: C_10  and  N_1 
REMARK    2  A    between atoms: S_7  and  C_4 
REMARK    3  A    between atoms: C_9  and  C_6 
REMARK    4  A    between atoms: C_8  and  S_7 
REMARK    5  A    between atoms: N_14  and  C_13 
ROOT
ATOM      1  N   UNL d   1      33.033  19.601 -23.266  0.00  0.00    -0.241 N 
ATOM      2  C   UNL d   1      33.119  19.748 -24.049  0.00  0.00     0.268 A 
ATOM      3  C   UNL d   1      32.920  18.803 -23.130  0.00  0.00     0.273 A 
ATOM      4  C   UNL d   1      32.936  18.435 -23.869  0.00  0.00     0.091 A 
ATOM      5  C   UNL d   1      33.060  19.025 -24.441  0.00  0.00     0.072 A 
ATOM      6  O   UNL d   1      33.241  20.494 -24.373  0.00  0.00    -0.267 OA
ATOM      7  O   UNL d   1      32.811  18.441 -22.379  0.00  0.00    -0.266 OA
ENDROOT
BRANCH   4   8
ATOM      8  S   UNL d   1      32.837  17.628 -23.909  0.00  0.00    -0.082 SA
BRANCH   8   9
ATOM      9  C   UNL d   1      32.113  17.291 -24.176  0.00  0.00     0.035 A 
ATOM     10  C   UNL d   1      32.051  16.463 -24.321  0.00  0.00     0.070 A 
ATOM     11  C   UNL d   1      31.325  16.176 -24.581  0.00  0.00     0.007 A 
ATOM     12  C   UNL d   1      30.680  16.695 -24.692  0.00  0.00     0.000 A 
ATOM     13  C   UNL d   1      30.761  17.518 -24.541  0.00  0.00     0.001 A 
ATOM     14  C   UNL d   1      31.479  17.809 -24.284  0.00  0.00     0.007 A 
BRANCH  10  15
ATOM     15  C   UNL d   1      32.677  15.970 -24.212  0.00  0.00     0.211 C 
ATOM     16  O   UNL d   1      33.109  15.712 -24.858  0.00  0.00    -0.644 OA
ATOM     17  O   UNL d   1      32.915  15.705 -23.473  0.00  0.00    -0.644 OA
ENDBRANCH  10  15
ENDBRANCH   8   9
ENDBRANCH   4   8
BRANCH   1  18
ATOM     18  C   UNL d   1      33.068  20.248 -22.701  0.00  0.00     0.070 A 
ATOM     19  C   UNL d   1      33.160  21.010 -22.959  0.00  0.00     0.019 A 
ATOM     20  C   UNL d   1      33.191  21.625 -22.400  0.00  0.00     0.019 A 
ATOM     21  C   UNL d   1      33.129  21.453 -21.596  0.00  0.00     0.064 A 
ATOM     22  C   UNL d   1      33.035  20.673 -21.338  0.00  0.00     0.019 A 
ATOM     23  C   UNL d   1      33.004  20.065 -21.888  0.00  0.00     0.019 A 
BRANCH  21  24
ATOM     24  N   UNL d   1      33.159  22.055 -21.048  0.00  0.00    -0.301 N 
ATOM     25  C   UNL d   1      33.107  22.839 -21.304  0.00  0.00     0.100 C 
ATOM     26  C   UNL d   1      33.241  21.872 -20.256  0.00  0.00     0.100 C 
ENDBRANCH  21  24
ENDBRANCH   1  18
TORSDOF 5
ENDMDL
MODEL 3
REMARK VINA RESULT:      -0.6      1.337      2.147
REMARK  5 active torsions:
REMARK  status: ('A' for Active; 'I' for Inactive)
REMARK    1  A    between atoms: C_10  and  N_1 
REMARK    2  A    between atoms: S_7  and  C_4 
REMARK    3  A    between atoms: C_9  and  C_6 
REMARK    4  A    between atoms: C_8  and  S_7 
REMARK    5  A    between atoms: N_14  and  C_13 
ROOT
ATOM      1  N   UNL d   1      32.748  19.032 -23.705  0.00  0.00    -0.241 N 
ATOM      2  C   UNL d   1      32.950  19.630 -24.198  0.00  0.00     0.268 A 
ATOM      3  C   UNL d   1      32.724  19.288 -22.930  0.00  0.00     0.273 A 
ATOM      4  C   UNL d   1      32.922  20.090 -22.942  0.00  0.00     0.091 A 
ATOM      5  C   UNL d   1      33.063  20.301 -23.734  0.00  0.00     0.072 A 
ATOM      6  O   UNL d   1      33.024  19.556 -25.014  0.00  0.00    -0.267 OA
ATOM      7  O   UNL d   1      32.533  18.818 -22.259  0.00  0.00    -0.266 OA
ENDROOT
BRANCH   4   8
ATOM      8  S   UNL d   1      32.945  20.501 -22.241  0.00  0.00    -0.082 SA
BRANCH   8   9
ATOM      9  C   UNL d   1      32.970  21.343 -22.230  0.00  0.00     0.035 A 
ATOM     10  C   UNL d   1      32.764  21.772 -21.534  0.00  0.00     0.070 A 
ATOM     11  C   UNL d   1      32.802  22.593 -21.568  0.00  0.00     0.007 A 
ATOM     12  C   UNL d   1      33.039  22.977 -22.271  0.00  0.00     0.000 A 
ATOM     13  C   UNL d   1      33.241  22.532 -22.955  0.00  0.00     0.001 A 
ATOM     14  C   UNL d   1      33.205  21.717 -22.928  0.00  0.00     0.007 A 
BRANCH  10  15
ATOM     15  C   UNL d   1      32.537  21.394 -20.861  0.00  0.00     0.211 C 
ATOM     16  O   UNL d   1      31.762  21.456 -20.602  0.00  0.00    -0.644 OA
ATOM     17  O   UNL d   1      33.048  20.940 -20.409  0.00  0.00    -0.644 OA
ENDBRANCH  10  15
ENDBRANCH   8   9
ENDBRANCH   4   8
BRANCH   1  18
ATOM     18  C   UNL d   1      32.591  18.248 -24.021  0.00  0.00     0.070 A 
ATOM     19  C   UNL d   1      31.830  18.015 -24.173  0.00  0.00     0.019 A 
ATOM     20  C   UNL d   1      31.694  17.253 -24.479  0.00  0.00     0.019 A 
ATOM     21  C   UNL d   1      32.330  16.749 -24.623  0.00  0.00     0.064 A 
ATOM     22  C   UNL d   1      33.105  16.991 -24.466  0.00  0.00     0.019 A 
ATOM     23  C   UNL d   1      33.241  17.743 -24.164  0.00  0.00     0.019 A 
BRANCH  21  24
ATOM     24  N   UNL d   1      32.198  16.003 -24.922  0.00  0.00    -0.301 N 
ATOM     25  C   UNL d   1      32.840  15.498 -25.051  0.00  0.00     0.100 C 
ATOM     26  C   UNL d   1      31.435  15.767 -25.090  0.00  0.00     0.100 C 
ENDBRANCH  21  24
ENDBRANCH   1  18
TORSDOF 5
ENDMDL
