MODEL 1
REMARK VINA RESULT:      11.9      0.000      0.000
REMARK  1 active torsions:
REMARK  status: ('A' for Active; 'I' for Inactive)
REMARK    1  A    between atoms: N_11  and  C_7 
ROOT
ATOM      1  C   UNL d   1      13.242  11.974  -2.424  0.00  0.00     0.201 A 
ATOM      2  C   UNL d   1      13.926  12.440  -2.426  0.00  0.00     0.141 A 
ATOM      3  N   UNL d   1      12.867  11.789  -3.133  0.00  0.00    -0.036 NA
ATOM      4  C   UNL d   1      14.180  12.535  -1.648  0.00  0.00     0.040 A 
ATOM      5  N   UNL d   1      13.073  11.779  -1.640  0.00  0.00    -0.225 NA
ATOM      6  N   UNL d   1      14.237  12.725  -3.143  0.00  0.00    -0.129 NA
ATOM      7  C   UNL d   1      13.172  12.070  -3.851  0.00  0.00     0.788 A 
ATOM      8  C   UNL d   1      13.654  12.127  -1.163  0.00  0.00     0.085 A 
ATOM      9  N   UNL d   1      13.854  12.535  -3.852  0.00  0.00     0.048 NA
ATOM     10  C   UNL d   1      14.818  12.937  -1.319  0.00  0.00     0.003 A 
ATOM     11  C   UNL d   1      13.761  12.117  -0.343  0.00  0.00     0.019 A 
ATOM     12  C   UNL d   1      14.929  12.930  -0.504  0.00  0.00     0.000 A 
ATOM     13  C   UNL d   1      14.398  12.518  -0.014  0.00  0.00     0.002 A 
ATOM     14  C   UNL d   1      15.574  13.335  -0.165  0.00  0.00     0.000 C 
ENDROOT
BRANCH   7  15
ATOM     15  N   UNL d   1      12.789  11.881  -4.559  0.00  0.00     0.069 NA
ATOM     16  N   UNL d   1      13.144  11.797  -5.298  0.00  0.00    -0.006 N 
ENDBRANCH   7  15
TORSDOF 1
ENDMDL
