MODEL 1
REMARK VINA RESULT:      -8.1      0.000      0.000
REMARK  6 active torsions:
REMARK  status: ('A' for Active; 'I' for Inactive)
REMARK    1  A    between atoms: C_6  and  C_2 
REMARK    2  A    between atoms: C_7  and  C_6 
REMARK    3  A    between atoms: C_8  and  C_15 
REMARK       I    between atoms: N_9  and  C_8 
REMARK    4  A    between atoms: C_16  and  N_9 
REMARK    5  A    between atoms: O_13  and  C_12 
REMARK    6  A    between atoms: C_15  and  O_13 
ROOT
ATOM      1  C   UNL d   1     -46.385  13.056  22.727  0.00  0.00     0.023 A 
ATOM      2  C   UNL d   1     -47.149  13.078  23.031  0.00  0.00     0.100 A 
ATOM      3  C   UNL d   1     -45.984  13.750  22.565  0.00  0.00     0.002 A 
ATOM      4  C   UNL d   1     -47.514  13.800  23.174  0.00  0.00     0.025 A 
ATOM      5  C   UNL d   1     -46.343  14.478  22.706  0.00  0.00     0.000 A 
ATOM      6  C   UNL d   1     -47.112  14.498  23.012  0.00  0.00     0.002 A 
ENDROOT
BRANCH   2   7
ATOM      7  O   UNL d   1     -47.552  12.376  23.194  0.00  0.00    -0.300 OA
BRANCH   7   8
ATOM      8  C   UNL d   1     -48.366  12.333  23.047  0.00  0.00     0.185 C 
BRANCH   8   9
ATOM      9  C   UNL d   1     -48.785  11.649  23.253  0.00  0.00     0.304 C 
ATOM     10  N   UNL d   1     -49.569  11.563  23.008  0.00  0.00    -0.206 NA
ATOM     11  O   UNL d   1     -48.421  11.061  23.697  0.00  0.00    -0.263 OA
BRANCH  10  12
ATOM     12  C   UNL d   1     -49.932  12.150  22.564  0.00  0.00     0.085 A 
ATOM     13  C   UNL d   1     -49.833  12.180  21.747  0.00  0.00     0.021 A 
ATOM     14  C   UNL d   1     -50.200  12.772  21.299  0.00  0.00     0.031 A 
ATOM     15  C   UNL d   1     -50.671  13.339  21.677  0.00  0.00     0.140 A 
ATOM     16  C   UNL d   1     -50.771  13.308  22.498  0.00  0.00     0.031 A 
ATOM     17  F   UNL d   1     -51.040  13.932  21.238  0.00  0.00    -0.204 F 
ATOM     18  C   UNL d   1     -50.404  12.717  22.942  0.00  0.00     0.021 A 
ENDBRANCH  10  12
ENDBRANCH   8   9
ENDBRANCH   7   8
ENDBRANCH   2   7
BRANCH   1  19
ATOM     19  C   UNL d   1     -46.016  12.332  22.581  0.00  0.00     0.013 C 
BRANCH  19  20
ATOM     20  C   UNL d   1     -45.213  12.300  22.412  0.00  0.00     0.092 A 
ATOM     21  C   UNL d   1     -44.657  11.833  22.787  0.00  0.00     0.288 A 
ATOM     22  N   UNL d   1     -43.927  11.975  22.442  0.00  0.00    -0.163 NA
ATOM     23  O   UNL d   1     -44.804  11.310  23.406  0.00  0.00    -0.265 OA
ATOM     24  C   UNL d   1     -44.032  12.536  21.846  0.00  0.00     0.313 A 
ATOM     25  S   UNL d   1     -44.831  12.738  21.827  0.00  0.00    -0.021 SA
ATOM     26  O   UNL d   1     -43.442  12.843  21.354  0.00  0.00    -0.258 OA
ENDBRANCH  19  20
ENDBRANCH   1  19
TORSDOF 6
ENDMDL
MODEL 2
REMARK VINA RESULT:      -7.3      1.605      2.297
REMARK  6 active torsions:
REMARK  status: ('A' for Active; 'I' for Inactive)
REMARK    1  A    between atoms: C_6  and  C_2 
REMARK    2  A    between atoms: C_7  and  C_6 
REMARK    3  A    between atoms: C_8  and  C_15 
REMARK       I    between atoms: N_9  and  C_8 
REMARK    4  A    between atoms: C_16  and  N_9 
REMARK    5  A    between atoms: O_13  and  C_12 
REMARK    6  A    between atoms: C_15  and  O_13 
ROOT
ATOM      1  C   UNL d   1     -46.965  13.327  23.153  0.00  0.00     0.023 A 
ATOM      2  C   UNL d   1     -47.352  14.044  23.037  0.00  0.00     0.100 A 
ATOM      3  C   UNL d   1     -46.235  13.191  22.810  0.00  0.00     0.002 A 
ATOM      4  C   UNL d   1     -47.005  14.628  22.576  0.00  0.00     0.025 A 
ATOM      5  C   UNL d   1     -45.881  13.773  22.346  0.00  0.00     0.000 A 
ATOM      6  C   UNL d   1     -46.272  14.494  22.231  0.00  0.00     0.002 A 
ENDROOT
BRANCH   2   7
ATOM      7  O   UNL d   1     -48.089  14.179  23.384  0.00  0.00    -0.300 OA
BRANCH   7   8
ATOM      8  C   UNL d   1     -48.736  14.364  22.902  0.00  0.00     0.185 C 
BRANCH   8   9
ATOM      9  C   UNL d   1     -49.336  14.857  23.191  0.00  0.00     0.304 C 
ATOM     10  N   UNL d   1     -50.120  14.711  22.977  0.00  0.00    -0.206 NA
ATOM     11  O   UNL d   1     -49.150  15.485  23.687  0.00  0.00    -0.263 OA
BRANCH  10  12
ATOM     12  C   UNL d   1     -50.306  14.083  22.481  0.00  0.00     0.085 A 
ATOM     13  C   UNL d   1     -50.178  14.138  21.670  0.00  0.00     0.021 A 
ATOM     14  C   UNL d   1     -50.365  13.505  21.170  0.00  0.00     0.031 A 
ATOM     15  C   UNL d   1     -50.684  12.810  21.490  0.00  0.00     0.140 A 
ATOM     16  C   UNL d   1     -50.813  12.756  22.306  0.00  0.00     0.031 A 
ATOM     17  F   UNL d   1     -50.874  12.175  20.999  0.00  0.00    -0.204 F 
ATOM     18  C   UNL d   1     -50.625  13.389  22.802  0.00  0.00     0.021 A 
ENDBRANCH  10  12
ENDBRANCH   8   9
ENDBRANCH   7   8
ENDBRANCH   2   7
BRANCH   1  19
ATOM     19  C   UNL d   1     -47.311  12.738  23.615  0.00  0.00     0.013 C 
BRANCH  19  20
ATOM     20  C   UNL d   1     -46.984  11.985  23.645  0.00  0.00     0.092 A 
ATOM     21  C   UNL d   1     -47.395  11.279  23.674  0.00  0.00     0.288 A 
ATOM     22  N   UNL d   1     -46.852  10.666  23.698  0.00  0.00    -0.163 NA
ATOM     23  O   UNL d   1     -48.214  11.197  23.679  0.00  0.00    -0.265 OA
ATOM     24  C   UNL d   1     -46.095  10.995  23.683  0.00  0.00     0.313 A 
ATOM     25  S   UNL d   1     -46.177  11.815  23.650  0.00  0.00    -0.021 SA
ATOM     26  O   UNL d   1     -45.380  10.579  23.698  0.00  0.00    -0.258 OA
ENDBRANCH  19  20
ENDBRANCH   1  19
TORSDOF 6
ENDMDL
MODEL 3
REMARK VINA RESULT:      -6.3      2.508      4.653
REMARK  6 active torsions:
REMARK  status: ('A' for Active; 'I' for Inactive)
REMARK    1  A    between atoms: C_6  and  C_2 
REMARK    2  A    between atoms: C_7  and  C_6 
REMARK    3  A    between atoms: C_8  and  C_15 
REMARK       I    between atoms: N_9  and  C_8 
REMARK    4  A    between atoms: C_16  and  N_9 
REMARK    5  A    between atoms: O_13  and  C_12 
REMARK    6  A    between atoms: C_15  and  O_13 
ROOT
ATOM      1  C   UNL d   1     -49.902  14.395  22.577  0.00  0.00     0.023 A 
ATOM      2  C   UNL d   1     -49.262  14.893  22.713  0.00  0.00     0.100 A 
ATOM      3  C   UNL d   1     -50.603  14.501  22.985  0.00  0.00     0.002 A 
ATOM      4  C   UNL d   1     -49.323  15.501  23.261  0.00  0.00     0.025 A 
ATOM      5  C   UNL d   1     -50.672  15.110  23.536  0.00  0.00     0.000 A 
ATOM      6  C   UNL d   1     -50.027  15.610  23.672  0.00  0.00     0.002 A 
ENDROOT
BRANCH   2   7
ATOM      7  O   UNL d   1     -48.555  14.783  22.300  0.00  0.00    -0.300 OA
BRANCH   7   8
ATOM      8  C   UNL d   1     -47.845  14.722  22.722  0.00  0.00     0.185 C 
BRANCH   8   9
ATOM      9  C   UNL d   1     -47.165  15.100  22.438  0.00  0.00     0.304 C 
ATOM     10  N   UNL d   1     -46.451  14.686  22.410  0.00  0.00    -0.206 NA
ATOM     11  O   UNL d   1     -47.202  15.882  22.187  0.00  0.00    -0.263 OA
BRANCH  10  12
ATOM     12  C   UNL d   1     -46.413  13.905  22.661  0.00  0.00     0.085 A 
ATOM     13  C   UNL d   1     -46.581  13.707  23.442  0.00  0.00     0.021 A 
ATOM     14  C   UNL d   1     -46.543  12.920  23.696  0.00  0.00     0.031 A 
ATOM     15  C   UNL d   1     -46.334  12.326  23.157  0.00  0.00     0.140 A 
ATOM     16  C   UNL d   1     -46.166  12.525  22.371  0.00  0.00     0.031 A 
ATOM     17  F   UNL d   1     -46.294  11.538  23.401  0.00  0.00    -0.204 F 
ATOM     18  C   UNL d   1     -46.205  13.311  22.122  0.00  0.00     0.021 A 
ENDBRANCH  10  12
ENDBRANCH   8   9
ENDBRANCH   7   8
ENDBRANCH   2   7
BRANCH   1  19
ATOM     19  C   UNL d   1     -49.843  13.782  22.027  0.00  0.00     0.013 C 
BRANCH  19  20
ATOM     20  C   UNL d   1     -49.952  13.002  22.258  0.00  0.00     0.092 A 
ATOM     21  C   UNL d   1     -49.774  12.337  21.818  0.00  0.00     0.288 A 
ATOM     22  N   UNL d   1     -49.970  11.675  22.260  0.00  0.00    -0.163 NA
ATOM     23  O   UNL d   1     -49.452  12.331  21.060  0.00  0.00    -0.265 OA
ATOM     24  C   UNL d   1     -50.274  11.933  22.983  0.00  0.00     0.313 A 
ATOM     25  S   UNL d   1     -50.262  12.757  22.982  0.00  0.00    -0.021 SA
ATOM     26  O   UNL d   1     -50.543  11.452  23.601  0.00  0.00    -0.258 OA
ENDBRANCH  19  20
ENDBRANCH   1  19
TORSDOF 6
ENDMDL
MODEL 4
REMARK VINA RESULT:      -6.1      7.589      9.524
REMARK  6 active torsions:
REMARK  status: ('A' for Active; 'I' for Inactive)
REMARK    1  A    between atoms: C_6  and  C_2 
REMARK    2  A    between atoms: C_7  and  C_6 
REMARK    3  A    between atoms: C_8  and  C_15 
REMARK       I    between atoms: N_9  and  C_8 
REMARK    4  A    between atoms: C_16  and  N_9 
REMARK    5  A    between atoms: O_13  and  C_12 
REMARK    6  A    between atoms: C_15  and  O_13 
ROOT
ATOM      1  C   UNL d   1     -38.881  14.545  17.835  0.00  0.00     0.023 A 
ATOM      2  C   UNL d   1     -38.619  14.392  18.599  0.00  0.00     0.100 A 
ATOM      3  C   UNL d   1     -38.954  13.937  17.293  0.00  0.00     0.002 A 
ATOM      4  C   UNL d   1     -38.428  13.625  18.822  0.00  0.00     0.025 A 
ATOM      5  C   UNL d   1     -38.765  13.165  17.509  0.00  0.00     0.000 A 
ATOM      6  C   UNL d   1     -38.501  13.012  18.279  0.00  0.00     0.002 A 
ENDROOT
BRANCH   2   7
ATOM      7  O   UNL d   1     -38.546  15.007  19.144  0.00  0.00    -0.300 OA
BRANCH   7   8
ATOM      8  C   UNL d   1     -38.877  14.922  19.899  0.00  0.00     0.185 C 
BRANCH   8   9
ATOM      9  C   UNL d   1     -38.674  15.456  20.499  0.00  0.00     0.304 C 
ATOM     10  N   UNL d   1     -39.217  15.615  21.101  0.00  0.00    -0.206 NA
ATOM     11  O   UNL d   1     -37.940  15.824  20.493  0.00  0.00    -0.263 OA
BRANCH  10  12
ATOM     12  C   UNL d   1     -39.951  15.247  21.107  0.00  0.00     0.085 A 
ATOM     13  C   UNL d   1     -40.028  14.469  21.362  0.00  0.00     0.021 A 
ATOM     14  C   UNL d   1     -40.769  14.098  21.368  0.00  0.00     0.031 A 
ATOM     15  C   UNL d   1     -41.438  14.516  21.115  0.00  0.00     0.140 A 
ATOM     16  C   UNL d   1     -41.360  15.299  20.859  0.00  0.00     0.031 A 
ATOM     17  F   UNL d   1     -42.180  14.154  21.118  0.00  0.00    -0.204 F 
ATOM     18  C   UNL d   1     -40.620  15.665  20.854  0.00  0.00     0.021 A 
ENDBRANCH  10  12
ENDBRANCH   8   9
ENDBRANCH   7   8
ENDBRANCH   2   7
BRANCH   1  19
ATOM     19  C   UNL d   1     -39.074  15.315  17.607  0.00  0.00     0.013 C 
BRANCH  19  20
ATOM     20  C   UNL d   1     -39.693  15.453  17.086  0.00  0.00     0.092 A 
ATOM     21  C   UNL d   1     -39.630  15.731  16.321  0.00  0.00     0.288 A 
ATOM     22  N   UNL d   1     -40.383  15.787  16.003  0.00  0.00    -0.163 NA
ATOM     23  O   UNL d   1     -38.928  15.922  15.932  0.00  0.00    -0.265 OA
ATOM     24  C   UNL d   1     -40.921  15.541  16.580  0.00  0.00     0.313 A 
ATOM     25  S   UNL d   1     -40.492  15.334  17.253  0.00  0.00    -0.021 SA
ATOM     26  O   UNL d   1     -41.744  15.508  16.499  0.00  0.00    -0.258 OA
ENDBRANCH  19  20
ENDBRANCH   1  19
TORSDOF 6
ENDMDL
