MODEL 1
REMARK VINA RESULT:      47.8      0.000      0.000
REMARK  3 active torsions:
REMARK  status: ('A' for Active; 'I' for Inactive)
REMARK    1  A    between atoms: N_7  and  C_1 
REMARK    2  A    between atoms: C_11  and  N_3 
REMARK       I    between atoms: C_9  and  N_7 
REMARK    3  A    between atoms: C_12  and  C_9 
ROOT
ATOM      1  C   UNL d   1     -51.293  24.730  33.482  0.00  0.00     0.165 A 
ATOM      2  C   UNL d   1     -50.561  24.470  33.430  0.00  0.00     0.067 A 
ATOM      3  N   UNL d   1     -51.762  24.111  33.532  0.00  0.00    -0.238 N 
ATOM      4  C   UNL d   1     -50.579  23.684  33.448  0.00  0.00     0.116 A 
ATOM      5  N   UNL d   1     -51.321  23.467  33.510  0.00  0.00    -0.168 NA
ATOM      6  S   UNL d   1     -49.377  24.053  33.346  0.00  0.00     0.213 S 
ATOM      7  C   UNL d   1     -49.848  23.432  33.396  0.00  0.00     0.120 A 
ATOM      8  C   UNL d   1     -49.819  24.694  33.368  0.00  0.00     0.103 A 
ATOM      9  O   UNL d   1     -49.008  23.372  33.331  0.00  0.00    -0.217 OA
ATOM     10  O   UNL d   1     -49.014  24.619  33.306  0.00  0.00    -0.217 OA
ENDROOT
BRANCH   1  11
ATOM     11  N   UNL d   1     -51.102  25.409  33.454  0.00  0.00    -0.189 NA
ATOM     12  C   UNL d   1     -51.299  26.241  33.985  0.00  0.00     0.281 C 
ATOM     13  O   UNL d   1     -51.763  26.226  34.591  0.00  0.00    -0.265 OA
BRANCH  12  14
ATOM     14  C   UNL d   1     -50.953  26.952  33.762  0.00  0.00     0.058 A 
ATOM     15  C   UNL d   1     -51.442  27.601  33.533  0.00  0.00     0.005 A 
ATOM     16  C   UNL d   1     -52.264  27.525  33.531  0.00  0.00     0.000 C 
ATOM     17  C   UNL d   1     -51.088  28.322  33.307  0.00  0.00     0.000 A 
ATOM     18  C   UNL d   1     -50.252  28.394  33.310  0.00  0.00     0.000 A 
ATOM     19  C   UNL d   1     -49.784  27.749  33.538  0.00  0.00     0.000 A 
ATOM     20  C   UNL d   1     -50.133  27.026  33.765  0.00  0.00     0.005 A 
ENDBRANCH  12  14
ENDBRANCH   1  11
BRANCH   3  21
ATOM     21  C   UNL d   1     -52.593  24.131  33.597  0.00  0.00     0.088 C 
ATOM     22  C   UNL d   1     -53.134  23.565  33.309  0.00  0.00     0.025 C 
ATOM     23  C   UNL d   1     -52.863  24.805  33.997  0.00  0.00     0.025 C 
ATOM     24  C   UNL d   1     -53.414  24.052  33.604  0.00  0.00     0.025 C 
ENDBRANCH   3  21
TORSDOF 3
ENDMDL
MODEL 2
REMARK VINA RESULT:      48.5      0.849      3.179
REMARK  3 active torsions:
REMARK  status: ('A' for Active; 'I' for Inactive)
REMARK    1  A    between atoms: N_7  and  C_1 
REMARK    2  A    between atoms: C_11  and  N_3 
REMARK       I    between atoms: C_9  and  N_7 
REMARK    3  A    between atoms: C_12  and  C_9 
ROOT
ATOM      1  C   UNL d   1     -51.206  25.621  33.580  0.00  0.00     0.165 A 
ATOM      2  C   UNL d   1     -50.718  25.021  33.497  0.00  0.00     0.067 A 
ATOM      3  N   UNL d   1     -50.780  26.271  33.618  0.00  0.00    -0.238 N 
ATOM      4  C   UNL d   1     -49.984  25.303  33.484  0.00  0.00     0.116 A 
ATOM      5  N   UNL d   1     -50.027  26.073  33.559  0.00  0.00    -0.168 NA
ATOM      6  S   UNL d   1     -49.931  24.048  33.363  0.00  0.00     0.213 S 
ATOM      7  C   UNL d   1     -49.503  24.700  33.401  0.00  0.00     0.120 A 
ATOM      8  C   UNL d   1     -50.682  24.248  33.422  0.00  0.00     0.103 A 
ATOM      9  O   UNL d   1     -49.167  23.931  33.310  0.00  0.00    -0.217 OA
ATOM     10  O   UNL d   1     -50.343  23.516  33.335  0.00  0.00    -0.217 OA
ENDROOT
BRANCH   1  11
ATOM     11  N   UNL d   1     -51.782  25.212  33.573  0.00  0.00    -0.189 NA
ATOM     12  C   UNL d   1     -52.612  25.119  34.135  0.00  0.00     0.281 C 
ATOM     13  O   UNL d   1     -52.733  25.562  34.744  0.00  0.00    -0.265 OA
BRANCH  12  14
ATOM     14  C   UNL d   1     -53.173  24.553  33.933  0.00  0.00     0.058 A 
ATOM     15  C   UNL d   1     -53.868  24.784  33.514  0.00  0.00     0.005 A 
ATOM     16  C   UNL d   1     -53.988  25.574  33.306  0.00  0.00     0.000 C 
ATOM     17  C   UNL d   1     -54.436  24.207  33.310  0.00  0.00     0.000 A 
ATOM     18  C   UNL d   1     -54.309  23.406  33.524  0.00  0.00     0.000 A 
ATOM     19  C   UNL d   1     -53.622  23.192  33.935  0.00  0.00     0.000 A 
ATOM     20  C   UNL d   1     -53.052  23.765  34.141  0.00  0.00     0.005 A 
ENDBRANCH  12  14
ENDBRANCH   1  11
BRANCH   3  21
ATOM     21  C   UNL d   1     -51.076  27.045  33.707  0.00  0.00     0.088 C 
ATOM     22  C   UNL d   1     -51.726  27.385  33.310  0.00  0.00     0.025 C 
ATOM     23  C   UNL d   1     -50.645  27.487  34.261  0.00  0.00     0.025 C 
ATOM     24  C   UNL d   1     -51.446  27.781  33.717  0.00  0.00     0.025 C 
ENDBRANCH   3  21
TORSDOF 3
ENDMDL
