MODEL 1
REMARK VINA RESULT:      40.1      0.000      0.000
REMARK  3 active torsions:
REMARK  status: ('A' for Active; 'I' for Inactive)
REMARK    1  A    between atoms: C_11  and  C_6 
REMARK       I    between atoms: N_15  and  C_11 
REMARK    2  A    between atoms: C_23  and  N_15 
REMARK    3  A    between atoms: C_22  and  C_23 
ROOT
ATOM      1  C   UNL d   1      46.298 -17.863  43.509  0.00  0.00     0.155 A 
ATOM      2  C   UNL d   1      46.405 -17.435  42.810  0.00  0.00     0.091 A 
ATOM      3  N   UNL d   1      46.304 -18.686  43.489  0.00  0.00    -0.210 NA
ATOM      4  N   UNL d   1      46.522 -18.655  42.081  0.00  0.00    -0.258 N 
ATOM      5  N   UNL d   1      46.187 -17.465  44.218  0.00  0.00    -0.272 N 
ATOM      6  C   UNL d   1      46.288 -16.207  43.544  0.00  0.00     0.094 A 
ATOM      7  C   UNL d   1      46.414 -19.076  42.785  0.00  0.00     0.152 A 
ATOM      8  C   UNL d   1      46.518 -17.832  42.092  0.00  0.00     0.269 A 
ATOM      9  C   UNL d   1      46.182 -16.631  44.236  0.00  0.00     0.175 A 
ATOM     10  C   UNL d   1      46.401 -16.610  42.822  0.00  0.00     0.016 A 
ATOM     11  C   UNL d   1      46.420 -19.903  42.762  0.00  0.00     0.035 A 
ATOM     12  C   UNL d   1      46.634 -19.048  41.365  0.00  0.00     0.084 A 
ATOM     13  N   UNL d   1      46.069 -16.232  44.955  0.00  0.00    -0.128 N 
ATOM     14  O   UNL d   1      46.624 -17.407  41.398  0.00  0.00    -0.266 OA
ATOM     15  C   UNL d   1      46.638 -19.869  41.356  0.00  0.00     0.019 A 
ATOM     16  C   UNL d   1      46.530 -20.297  42.055  0.00  0.00     0.005 A 
ATOM     17  C   UNL d   1      46.080 -17.891  44.915  0.00  0.00     0.102 C 
ATOM     18  C   UNL d   1      46.313 -20.330  43.459  0.00  0.00     0.003 C 
ENDROOT
BRANCH   6  19
ATOM     19  C   UNL d   1      46.283 -15.377  43.559  0.00  0.00     0.282 C 
ATOM     20  N   UNL d   1      45.912 -14.983  44.181  0.00  0.00    -0.206 NA
ATOM     21  O   UNL d   1      46.646 -14.952  42.957  0.00  0.00    -0.265 OA
BRANCH  20  22
ATOM     22  C   UNL d   1      45.910 -14.160  44.193  0.00  0.00     0.104 C 
BRANCH  22  23
ATOM     23  C   UNL d   1      45.202 -13.754  44.056  0.00  0.00     0.038 A 
ATOM     24  C   UNL d   1      45.182 -13.152  43.493  0.00  0.00     0.101 A 
ATOM     25  N   UNL d   1      44.478 -12.744  43.354  0.00  0.00    -0.242 NA
ATOM     26  C   UNL d   1      43.799 -12.940  43.778  0.00  0.00     0.099 A 
ATOM     27  C   UNL d   1      43.821 -13.545  44.342  0.00  0.00     0.021 A 
ATOM     28  C   UNL d   1      44.527 -13.949  44.477  0.00  0.00     0.005 A 
ENDBRANCH  22  23
ENDBRANCH  20  22
ENDBRANCH   6  19
TORSDOF 3
ENDMDL
