MODEL 1
REMARK VINA RESULT:      -4.4      0.000      0.000
REMARK  4 active torsions:
REMARK  status: ('A' for Active; 'I' for Inactive)
REMARK    1  A    between atoms: S_18  and  C_6 
REMARK    2  A    between atoms: C_8  and  N_12 
REMARK       I    between atoms: N_12  and  C_16 
REMARK    3  A    between atoms: C_16  and  C_21 
REMARK    4  A    between atoms: C_21  and  S_18 
ROOT
ATOM      1  N   UNL d   1      56.107   0.681  34.014  0.00  0.00    -0.242 N 
ATOM      2  C   UNL d   1      55.562   0.682  33.398  0.00  0.00     0.153 A 
ATOM      3  C   UNL d   1      56.915   0.681  33.846  0.00  0.00     0.357 A 
ATOM      4  N   UNL d   1      55.822   0.682  32.615  0.00  0.00    -0.203 NA
ATOM      5  N   UNL d   1      57.174   0.681  33.063  0.00  0.00    -0.167 NA
ATOM      6  C   UNL d   1      56.625   0.682  32.447  0.00  0.00     0.200 A 
ATOM      7  C   UNL d   1      55.848   0.681  34.796  0.00  0.00     0.086 A 
ATOM      8  C   UNL d   1      54.754   0.682  33.566  0.00  0.00     0.038 A 
ATOM      9  C   UNL d   1      55.044   0.681  34.965  0.00  0.00     0.019 A 
ATOM     10  C   UNL d   1      54.495   0.682  34.348  0.00  0.00     0.004 A 
ATOM     11  O   UNL d   1      57.477   0.680  34.467  0.00  0.00    -0.244 OA
ATOM     12  C   UNL d   1      53.683   0.682  34.515  0.00  0.00     0.000 C 
ENDROOT
BRANCH   6  13
ATOM     13  S   UNL d   1      56.884   0.682  31.664  0.00  0.00    -0.043 SA
BRANCH  13  14
ATOM     14  C   UNL d   1      57.196  -0.007  31.333  0.00  0.00     0.101 C 
BRANCH  14  15
ATOM     15  C   UNL d   1      57.598   0.033  30.619  0.00  0.00     0.287 C 
ATOM     16  N   UNL d   1      58.183  -0.525  30.448  0.00  0.00    -0.186 NA
ATOM     17  O   UNL d   1      57.425   0.623  30.075  0.00  0.00    -0.265 OA
BRANCH  16  18
ATOM     18  C   UNL d   1      58.591  -0.489  29.732  0.00  0.00     0.194 A 
ATOM     19  N   UNL d   1      58.492  -0.023  29.056  0.00  0.00    -0.107 NA
ATOM     20  O   UNL d   1      59.067  -0.233  28.513  0.00  0.00    -0.210 OA
ATOM     21  C   UNL d   1      59.525  -0.823  28.839  0.00  0.00     0.128 A 
ATOM     22  C   UNL d   1      59.231  -0.985  29.597  0.00  0.00     0.068 A 
ATOM     23  C   UNL d   1      60.172  -1.190  28.461  0.00  0.00     0.029 C 
ENDBRANCH  16  18
ENDBRANCH  14  15
ENDBRANCH  13  14
ENDBRANCH   6  13
TORSDOF 4
ENDMDL
MODEL 2
REMARK VINA RESULT:      -4.3      1.225      5.721
REMARK  4 active torsions:
REMARK  status: ('A' for Active; 'I' for Inactive)
REMARK    1  A    between atoms: S_18  and  C_6 
REMARK    2  A    between atoms: C_8  and  N_12 
REMARK       I    between atoms: N_12  and  C_16 
REMARK    3  A    between atoms: C_16  and  C_21 
REMARK    4  A    between atoms: C_21  and  S_18 
ROOT
ATOM      1  N   UNL d   1      59.150  -1.240  29.313  0.00  0.00    -0.242 N 
ATOM      2  C   UNL d   1      59.229  -0.442  29.492  0.00  0.00     0.153 A 
ATOM      3  C   UNL d   1      58.500  -1.662  29.598  0.00  0.00     0.357 A 
ATOM      4  N   UNL d   1      58.662  -0.063  29.956  0.00  0.00    -0.203 NA
ATOM      5  N   UNL d   1      57.933  -1.283  30.062  0.00  0.00    -0.167 NA
ATOM      6  C   UNL d   1      58.015  -0.481  30.240  0.00  0.00     0.200 A 
ATOM      7  C   UNL d   1      59.717  -1.619  28.850  0.00  0.00     0.086 A 
ATOM      8  C   UNL d   1      59.879  -0.020  29.206  0.00  0.00     0.038 A 
ATOM      9  C   UNL d   1      60.364  -1.201  28.565  0.00  0.00     0.019 A 
ATOM     10  C   UNL d   1      60.445  -0.399  28.743  0.00  0.00     0.004 A 
ATOM     11  O   UNL d   1      58.412  -2.475  29.421  0.00  0.00    -0.244 OA
ATOM     12  C   UNL d   1      61.097   0.027  28.458  0.00  0.00     0.000 C 
ENDROOT
BRANCH   6  13
ATOM     13  S   UNL d   1      57.448  -0.102  30.704  0.00  0.00    -0.043 SA
BRANCH  13  14
ATOM     14  C   UNL d   1      57.437  -0.221  31.520  0.00  0.00     0.101 C 
BRANCH  14  15
ATOM     15  C   UNL d   1      56.809   0.066  31.963  0.00  0.00     0.287 C 
ATOM     16  N   UNL d   1      56.642  -0.267  32.700  0.00  0.00    -0.186 NA
ATOM     17  O   UNL d   1      56.346   0.682  31.679  0.00  0.00    -0.265 OA
BRANCH  16  18
ATOM     18  C   UNL d   1      56.012   0.019  33.148  0.00  0.00     0.194 A 
ATOM     19  N   UNL d   1      55.230   0.209  32.956  0.00  0.00    -0.107 NA
ATOM     20  O   UNL d   1      54.854   0.470  33.635  0.00  0.00    -0.210 OA
ATOM     21  C   UNL d   1      55.389   0.446  34.250  0.00  0.00     0.128 A 
ATOM     22  C   UNL d   1      56.110   0.166  33.950  0.00  0.00     0.068 A 
ATOM     23  C   UNL d   1      55.223   0.668  35.037  0.00  0.00     0.029 C 
ENDBRANCH  16  18
ENDBRANCH  14  15
ENDBRANCH  13  14
ENDBRANCH   6  13
TORSDOF 4
ENDMDL
