MODEL 1
REMARK VINA RESULT:      -8.0      0.000      0.000
REMARK  4 active torsions:
REMARK  status: ('A' for Active; 'I' for Inactive)
REMARK    1  A    between atoms: N_2  and  C_1 
REMARK    2  A    between atoms: N_4  and  C_1 
REMARK       I    between atoms: C_3  and  N_2 
REMARK    3  A    between atoms: C_6  and  C_3 
REMARK    4  A    between atoms: C_9  and  N_5 
ROOT
ATOM      1  N   UNL d   1      51.845  33.298  52.995  0.00  0.00    -0.278 N 
ATOM      2  N   UNL d   1      50.469  34.116  52.620  0.00  0.00    -0.301 N 
ATOM      3  C   UNL d   1      51.127  33.091  53.354  0.00  0.00     0.101 A 
ATOM      4  C   UNL d   1      51.880  33.916  52.445  0.00  0.00     0.101 A 
ATOM      5  C   UNL d   1      50.441  33.506  53.161  0.00  0.00     0.100 A 
ATOM      6  C   UNL d   1      51.194  34.329  52.254  0.00  0.00     0.100 A 
ENDROOT
BRANCH   1   7
ATOM      7  C   UNL d   1      52.527  32.878  53.193  0.00  0.00     0.209 C 
ATOM      8  S   UNL d   1      52.637  32.130  52.890  0.00  0.00    -0.038 SA
BRANCH   7   9
ATOM      9  N   UNL d   1      53.073  33.230  53.690  0.00  0.00    -0.179 NA
ATOM     10  C   UNL d   1      53.687  32.792  53.990  0.00  0.00     0.287 C 
ATOM     11  O   UNL d   1      53.726  32.007  53.773  0.00  0.00    -0.265 OA
BRANCH  10  12
ATOM     12  C   UNL d   1      54.239  33.118  54.483  0.00  0.00     0.087 A 
ATOM     13  S   UNL d   1      54.192  33.111  55.299  0.00  0.00    -0.082 SA
ATOM     14  C   UNL d   1      54.872  33.504  55.616  0.00  0.00     0.036 A 
ATOM     15  C   UNL d   1      55.324  33.745  54.960  0.00  0.00     0.008 A 
ATOM     16  C   UNL d   1      54.963  33.523  54.272  0.00  0.00     0.012 A 
ENDBRANCH  10  12
ENDBRANCH   7   9
ENDBRANCH   1   7
BRANCH   2  17
ATOM     17  C   UNL d   1      49.782  34.528  52.429  0.00  0.00     0.064 A 
ATOM     18  C   UNL d   1      49.444  35.050  52.982  0.00  0.00     0.020 A 
ATOM     19  C   UNL d   1      48.758  35.457  52.780  0.00  0.00     0.031 A 
ATOM     20  C   UNL d   1      48.400  35.355  52.039  0.00  0.00     0.140 A 
ATOM     21  C   UNL d   1      48.738  34.834  51.487  0.00  0.00     0.031 A 
ATOM     22  F   UNL d   1      47.718  35.769  51.857  0.00  0.00    -0.204 F 
ATOM     23  C   UNL d   1      49.433  34.421  51.689  0.00  0.00     0.020 A 
ENDBRANCH   2  17
TORSDOF 4
ENDMDL
MODEL 2
REMARK VINA RESULT:      -8.0      2.743      5.298
REMARK  4 active torsions:
REMARK  status: ('A' for Active; 'I' for Inactive)
REMARK    1  A    between atoms: N_2  and  C_1 
REMARK    2  A    between atoms: N_4  and  C_1 
REMARK       I    between atoms: C_3  and  N_2 
REMARK    3  A    between atoms: C_6  and  C_3 
REMARK    4  A    between atoms: C_9  and  N_5 
ROOT
ATOM      1  N   UNL d   1      50.990  34.188  52.858  0.00  0.00    -0.278 N 
ATOM      2  N   UNL d   1      52.391  33.810  53.630  0.00  0.00    -0.301 N 
ATOM      3  C   UNL d   1      51.048  33.486  53.295  0.00  0.00     0.101 A 
ATOM      4  C   UNL d   1      51.633  34.707  52.804  0.00  0.00     0.101 A 
ATOM      5  C   UNL d   1      51.755  33.303  53.679  0.00  0.00     0.100 A 
ATOM      6  C   UNL d   1      52.337  34.522  53.189  0.00  0.00     0.100 A 
ENDROOT
BRANCH   1   7
ATOM      7  C   UNL d   1      50.280  34.364  52.476  0.00  0.00     0.209 C 
ATOM      8  S   UNL d   1      50.126  34.033  51.748  0.00  0.00    -0.038 SA
BRANCH   7   9
ATOM      9  N   UNL d   1      49.752  34.868  52.845  0.00  0.00    -0.179 NA
ATOM     10  C   UNL d   1      49.063  35.075  52.469  0.00  0.00     0.287 C 
ATOM     11  O   UNL d   1      48.933  34.761  51.728  0.00  0.00    -0.265 OA
BRANCH  10  12
ATOM     12  C   UNL d   1      48.525  35.572  52.812  0.00  0.00     0.087 A 
ATOM     13  S   UNL d   1      47.903  35.925  52.417  0.00  0.00    -0.082 SA
ATOM     14  C   UNL d   1      47.466  36.402  52.963  0.00  0.00     0.036 A 
ATOM     15  C   UNL d   1      47.851  36.320  53.698  0.00  0.00     0.008 A 
ATOM     16  C   UNL d   1      48.487  35.826  53.628  0.00  0.00     0.012 A 
ENDBRANCH  10  12
ENDBRANCH   7   9
ENDBRANCH   1   7
BRANCH   2  17
ATOM     17  C   UNL d   1      53.096  33.624  54.015  0.00  0.00     0.064 A 
ATOM     18  C   UNL d   1      53.322  34.049  54.694  0.00  0.00     0.020 A 
ATOM     19  C   UNL d   1      54.027  33.855  55.069  0.00  0.00     0.031 A 
ATOM     20  C   UNL d   1      54.514  33.247  54.785  0.00  0.00     0.140 A 
ATOM     21  C   UNL d   1      54.287  32.823  54.107  0.00  0.00     0.031 A 
ATOM     22  F   UNL d   1      55.212  33.069  55.173  0.00  0.00    -0.204 F 
ATOM     23  C   UNL d   1      53.573  33.017  53.724  0.00  0.00     0.020 A 
ENDBRANCH   2  17
TORSDOF 4
ENDMDL
MODEL 3
REMARK VINA RESULT:      -6.1      3.133      5.425
REMARK  4 active torsions:
REMARK  status: ('A' for Active; 'I' for Inactive)
REMARK    1  A    between atoms: N_2  and  C_1 
REMARK    2  A    between atoms: N_4  and  C_1 
REMARK       I    between atoms: C_3  and  N_2 
REMARK    3  A    between atoms: C_6  and  C_3 
REMARK    4  A    between atoms: C_9  and  N_5 
ROOT
ATOM      1  N   UNL d   1      52.815  32.368  53.272  0.00  0.00    -0.278 N 
ATOM      2  N   UNL d   1      53.108  30.851  53.833  0.00  0.00    -0.301 N 
ATOM      3  C   UNL d   1      52.481  31.712  52.892  0.00  0.00     0.101 A 
ATOM      4  C   UNL d   1      53.299  32.270  53.937  0.00  0.00     0.101 A 
ATOM      5  C   UNL d   1      52.632  30.953  53.179  0.00  0.00     0.100 A 
ATOM      6  C   UNL d   1      53.449  31.512  54.222  0.00  0.00     0.100 A 
ENDROOT
BRANCH   1   7
ATOM      7  C   UNL d   1      52.659  33.123  52.979  0.00  0.00     0.209 C 
ATOM      8  S   UNL d   1      53.272  33.653  52.894  0.00  0.00    -0.038 SA
BRANCH   7   9
ATOM      9  N   UNL d   1      51.889  33.315  52.782  0.00  0.00    -0.179 NA
ATOM     10  C   UNL d   1      51.648  34.090  52.801  0.00  0.00     0.287 C 
ATOM     11  O   UNL d   1      52.202  34.647  53.020  0.00  0.00    -0.265 OA
BRANCH  10  12
ATOM     12  C   UNL d   1      50.892  34.305  52.610  0.00  0.00     0.087 A 
ATOM     13  S   UNL d   1      50.332  34.554  53.151  0.00  0.00    -0.082 SA
ATOM     14  C   UNL d   1      49.613  34.728  52.740  0.00  0.00     0.036 A 
ATOM     15  C   UNL d   1      49.765  34.574  51.935  0.00  0.00     0.008 A 
ATOM     16  C   UNL d   1      50.526  34.320  51.837  0.00  0.00     0.012 A 
ENDBRANCH  10  12
ENDBRANCH   7   9
ENDBRANCH   1   7
BRANCH   2  17
ATOM     17  C   UNL d   1      53.258  30.092  54.118  0.00  0.00     0.064 A 
ATOM     18  C   UNL d   1      53.582  29.516  53.614  0.00  0.00     0.020 A 
ATOM     19  C   UNL d   1      53.727  28.763  53.909  0.00  0.00     0.031 A 
ATOM     20  C   UNL d   1      53.556  28.569  54.697  0.00  0.00     0.140 A 
ATOM     21  C   UNL d   1      53.232  29.145  55.201  0.00  0.00     0.031 A 
ATOM     22  F   UNL d   1      53.708  27.813  54.972  0.00  0.00    -0.204 F 
ATOM     23  C   UNL d   1      53.084  29.909  54.904  0.00  0.00     0.020 A 
ENDBRANCH   2  17
TORSDOF 4
ENDMDL
MODEL 4
REMARK VINA RESULT:      -5.9      2.933      3.978
REMARK  4 active torsions:
REMARK  status: ('A' for Active; 'I' for Inactive)
REMARK    1  A    between atoms: N_2  and  C_1 
REMARK    2  A    between atoms: N_4  and  C_1 
REMARK       I    between atoms: C_3  and  N_2 
REMARK    3  A    between atoms: C_6  and  C_3 
REMARK    4  A    between atoms: C_9  and  N_5 
ROOT
ATOM      1  N   UNL d   1      53.208  31.807  53.474  0.00  0.00    -0.278 N 
ATOM      2  N   UNL d   1      53.149  33.402  53.870  0.00  0.00    -0.301 N 
ATOM      3  C   UNL d   1      52.513  32.242  53.351  0.00  0.00     0.101 A 
ATOM      4  C   UNL d   1      53.880  32.168  53.797  0.00  0.00     0.101 A 
ATOM      5  C   UNL d   1      52.491  33.041  53.552  0.00  0.00     0.100 A 
ATOM      6  C   UNL d   1      53.856  32.966  53.997  0.00  0.00     0.100 A 
ENDROOT
BRANCH   1   7
ATOM      7  C   UNL d   1      53.222  31.008  53.270  0.00  0.00     0.209 C 
ATOM      8  S   UNL d   1      53.045  30.788  52.506  0.00  0.00    -0.038 SA
BRANCH   7   9
ATOM      9  N   UNL d   1      53.414  30.460  53.847  0.00  0.00    -0.179 NA
ATOM     10  C   UNL d   1      53.099  29.713  53.814  0.00  0.00     0.287 C 
ATOM     11  O   UNL d   1      52.597  29.546  53.193  0.00  0.00    -0.265 OA
BRANCH  10  12
ATOM     12  C   UNL d   1      53.274  29.154  54.372  0.00  0.00     0.087 A 
ATOM     13  S   UNL d   1      52.985  29.157  55.136  0.00  0.00    -0.082 SA
ATOM     14  C   UNL d   1      53.292  28.484  55.548  0.00  0.00     0.036 A 
ATOM     15  C   UNL d   1      53.774  28.081  55.001  0.00  0.00     0.008 A 
ATOM     16  C   UNL d   1      53.776  28.466  54.291  0.00  0.00     0.012 A 
ENDBRANCH  10  12
ENDBRANCH   7   9
ENDBRANCH   1   7
BRANCH   2  17
ATOM     17  C   UNL d   1      53.125  34.201  54.070  0.00  0.00     0.064 A 
ATOM     18  C   UNL d   1      52.955  34.769  53.487  0.00  0.00     0.020 A 
ATOM     19  C   UNL d   1      52.933  35.563  53.699  0.00  0.00     0.031 A 
ATOM     20  C   UNL d   1      53.077  35.806  54.479  0.00  0.00     0.140 A 
ATOM     21  C   UNL d   1      53.247  35.237  55.061  0.00  0.00     0.031 A 
ATOM     22  F   UNL d   1      53.051  36.601  54.669  0.00  0.00    -0.204 F 
ATOM     23  C   UNL d   1      53.269  34.431  54.849  0.00  0.00     0.020 A 
ENDBRANCH   2  17
TORSDOF 4
ENDMDL
MODEL 5
REMARK VINA RESULT:      -5.8      2.802      5.391
REMARK  4 active torsions:
REMARK  status: ('A' for Active; 'I' for Inactive)
REMARK    1  A    between atoms: N_2  and  C_1 
REMARK    2  A    between atoms: N_4  and  C_1 
REMARK       I    between atoms: C_3  and  N_2 
REMARK    3  A    between atoms: C_6  and  C_3 
REMARK    4  A    between atoms: C_9  and  N_5 
ROOT
ATOM      1  N   UNL d   1      51.231  33.638  53.031  0.00  0.00    -0.278 N 
ATOM      2  N   UNL d   1      52.235  32.341  53.149  0.00  0.00    -0.301 N 
ATOM      3  C   UNL d   1      50.935  32.903  53.277  0.00  0.00     0.101 A 
ATOM      4  C   UNL d   1      52.032  33.729  52.842  0.00  0.00     0.101 A 
ATOM      5  C   UNL d   1      51.445  32.258  53.334  0.00  0.00     0.100 A 
ATOM      6  C   UNL d   1      52.539  33.083  52.899  0.00  0.00     0.100 A 
ENDROOT
BRANCH   1   7
ATOM      7  C   UNL d   1      50.715  34.279  52.976  0.00  0.00     0.209 C 
ATOM      8  S   UNL d   1      50.772  34.884  53.519  0.00  0.00    -0.038 SA
BRANCH   7   9
ATOM      9  N   UNL d   1      50.161  34.286  52.375  0.00  0.00    -0.179 NA
ATOM     10  C   UNL d   1      49.541  34.810  52.403  0.00  0.00     0.287 C 
ATOM     11  O   UNL d   1      49.506  35.312  53.044  0.00  0.00    -0.265 OA
BRANCH  10  12
ATOM     12  C   UNL d   1      48.980  34.835  51.821  0.00  0.00     0.087 A 
ATOM     13  S   UNL d   1      48.271  35.236  51.879  0.00  0.00    -0.082 SA
ATOM     14  C   UNL d   1      47.836  35.132  51.160  0.00  0.00     0.036 A 
ATOM     15  C   UNL d   1      48.314  34.655  50.672  0.00  0.00     0.008 A 
ATOM     16  C   UNL d   1      49.003  34.467  51.049  0.00  0.00     0.012 A 
ENDBRANCH  10  12
ENDBRANCH   7   9
ENDBRANCH   1   7
BRANCH   2  17
ATOM     17  C   UNL d   1      52.742  31.694  53.207  0.00  0.00     0.064 A 
ATOM     18  C   UNL d   1      52.524  30.965  52.872  0.00  0.00     0.020 A 
ATOM     19  C   UNL d   1      53.038  30.326  52.936  0.00  0.00     0.031 A 
ATOM     20  C   UNL d   1      53.765  30.397  53.328  0.00  0.00     0.140 A 
ATOM     21  C   UNL d   1      53.983  31.126  53.663  0.00  0.00     0.031 A 
ATOM     22  F   UNL d   1      54.263  29.749  53.380  0.00  0.00    -0.204 F 
ATOM     23  C   UNL d   1      53.463  31.774  53.599  0.00  0.00     0.020 A 
ENDBRANCH   2  17
TORSDOF 4
ENDMDL
MODEL 6
REMARK VINA RESULT:      -5.1     10.059     10.924
REMARK  4 active torsions:
REMARK  status: ('A' for Active; 'I' for Inactive)
REMARK    1  A    between atoms: N_2  and  C_1 
REMARK    2  A    between atoms: N_4  and  C_1 
REMARK       I    between atoms: C_3  and  N_2 
REMARK    3  A    between atoms: C_6  and  C_3 
REMARK    4  A    between atoms: C_9  and  N_5 
ROOT
ATOM      1  N   UNL d   1      44.699  29.626  58.872  0.00  0.00    -0.278 N 
ATOM      2  N   UNL d   1      44.784  28.297  57.908  0.00  0.00    -0.301 N 
ATOM      3  C   UNL d   1      45.120  29.655  58.158  0.00  0.00     0.101 A 
ATOM      4  C   UNL d   1      44.317  28.930  59.109  0.00  0.00     0.101 A 
ATOM      5  C   UNL d   1      45.158  28.984  57.680  0.00  0.00     0.100 A 
ATOM      6  C   UNL d   1      44.357  28.262  58.630  0.00  0.00     0.100 A 
ENDROOT
BRANCH   1   7
ATOM      7  C   UNL d   1      44.665  30.301  59.344  0.00  0.00     0.209 C 
ATOM      8  S   UNL d   1      44.655  31.035  58.992  0.00  0.00    -0.038 SA
BRANCH   7   9
ATOM      9  N   UNL d   1      44.642  30.209  60.157  0.00  0.00    -0.179 NA
ATOM     10  C   UNL d   1      44.625  30.864  60.636  0.00  0.00     0.287 C 
ATOM     11  O   UNL d   1      44.632  31.594  60.272  0.00  0.00    -0.265 OA
BRANCH  10  12
ATOM     12  C   UNL d   1      44.602  30.800  61.442  0.00  0.00     0.087 A 
ATOM     13  S   UNL d   1      44.314  31.376  61.945  0.00  0.00    -0.082 SA
ATOM     14  C   UNL d   1      44.384  31.104  62.743  0.00  0.00     0.036 A 
ATOM     15  C   UNL d   1      44.724  30.345  62.698  0.00  0.00     0.008 A 
ATOM     16  C   UNL d   1      44.863  30.145  61.927  0.00  0.00     0.012 A 
ENDBRANCH  10  12
ENDBRANCH   7   9
ENDBRANCH   1   7
BRANCH   2  17
ATOM     17  C   UNL d   1      44.824  27.628  57.428  0.00  0.00     0.064 A 
ATOM     18  C   UNL d   1      44.334  27.567  56.759  0.00  0.00     0.020 A 
ATOM     19  C   UNL d   1      44.383  26.895  56.288  0.00  0.00     0.031 A 
ATOM     20  C   UNL d   1      44.909  26.280  56.468  0.00  0.00     0.140 A 
ATOM     21  C   UNL d   1      45.399  26.342  57.136  0.00  0.00     0.031 A 
ATOM     22  F   UNL d   1      44.943  25.620  55.986  0.00  0.00    -0.204 F 
ATOM     23  C   UNL d   1      45.352  27.022  57.616  0.00  0.00     0.020 A 
ENDBRANCH   2  17
TORSDOF 4
ENDMDL
