MODEL 1
REMARK VINA RESULT:      39.0      0.000      0.000
REMARK  5 active torsions:
REMARK  status: ('A' for Active; 'I' for Inactive)
REMARK    1  A    between atoms: C_6  and  C_1 
REMARK       I    between atoms: C_7  and  N_8 
REMARK    2  A    between atoms: C_16  and  C_7 
REMARK    3  A    between atoms: N_8  and  C_14 
REMARK    4  A    between atoms: O_15  and  C_16 
REMARK    5  A    between atoms: C_21  and  O_15 
ROOT
ATOM      1  C   UNL d   1      45.996 -18.422  40.743  0.00  0.00     0.024 A 
ATOM      2  C   UNL d   1      45.213 -18.373  40.494  0.00  0.00     0.004 A 
ATOM      3  C   UNL d   1      46.615 -18.158  40.301  0.00  0.00     0.004 A 
ATOM      4  C   UNL d   1      45.682 -17.755  39.274  0.00  0.00     0.085 A 
ATOM      5  C   UNL d   1      46.472 -17.813  39.544  0.00  0.00     0.019 A 
ATOM      6  C   UNL d   1      45.070 -18.028  39.737  0.00  0.00     0.019 A 
ENDROOT
BRANCH   4   7
ATOM      7  N   UNL d   1      45.533 -17.394  38.485  0.00  0.00    -0.206 NA
ATOM      8  C   UNL d   1      44.844 -16.909  38.398  0.00  0.00     0.304 C 
ATOM      9  O   UNL d   1      44.318 -16.761  39.004  0.00  0.00    -0.263 OA
BRANCH   8  10
ATOM     10  C   UNL d   1      44.702 -16.566  37.648  0.00  0.00     0.185 C 
BRANCH  10  11
ATOM     11  O   UNL d   1      44.583 -15.758  37.594  0.00  0.00    -0.300 OA
BRANCH  11  12
ATOM     12  C   UNL d   1      45.191 -15.275  37.271  0.00  0.00     0.100 A 
ATOM     13  C   UNL d   1      45.334 -14.519  37.568  0.00  0.00     0.025 A 
ATOM     14  C   UNL d   1      45.921 -14.053  37.256  0.00  0.00     0.002 A 
ATOM     15  C   UNL d   1      46.382 -14.330  36.638  0.00  0.00     0.000 A 
ATOM     16  C   UNL d   1      46.249 -15.084  36.332  0.00  0.00     0.002 A 
ATOM     17  C   UNL d   1      45.661 -15.551  36.644  0.00  0.00     0.025 A 
ENDBRANCH  11  12
ENDBRANCH  10  11
ENDBRANCH   8  10
ENDBRANCH   4   7
BRANCH   1  18
ATOM     18  C   UNL d   1      46.138 -18.764  41.492  0.00  0.00     0.111 A 
ATOM     19  N   UNL d   1      46.267 -19.548  41.630  0.00  0.00    -0.239 NA
ATOM     20  C   UNL d   1      46.380 -19.653  42.424  0.00  0.00     0.088 A 
ATOM     21  C   UNL d   1      46.532 -20.310  42.894  0.00  0.00     0.020 A 
ATOM     22  C   UNL d   1      46.316 -18.891  42.784  0.00  0.00     0.049 A 
ATOM     23  C   UNL d   1      46.620 -20.232  43.692  0.00  0.00     0.002 A 
ATOM     24  C   UNL d   1      46.556 -19.470  44.052  0.00  0.00     0.001 A 
ATOM     25  C   UNL d   1      46.405 -18.804  43.605  0.00  0.00     0.008 A 
ATOM     26  C   UNL d   1      46.645 -19.383  44.874  0.00  0.00     0.000 C 
ATOM     27  S   UNL d   1      46.166 -18.345  42.198  0.00  0.00    -0.066 SA
ENDBRANCH   1  18
TORSDOF 5
ENDMDL
