MODEL 1
REMARK VINA RESULT:      -5.8      0.000      0.000
REMARK  7 active torsions:
REMARK  status: ('A' for Active; 'I' for Inactive)
REMARK       I    between atoms: C_5  and  N_1 
REMARK    1  A    between atoms: C_11  and  C_3 
REMARK    2  A    between atoms: C_12  and  C_5 
REMARK    3  A    between atoms: N_7  and  C_12 
REMARK    4  A    between atoms: C_13  and  C_8 
REMARK    5  A    between atoms: C_29  and  N_10 
REMARK    6  A    between atoms: O_28  and  C_16 
REMARK    7  A    between atoms: O_30  and  C_23 
ROOT
ATOM      1  N   UNL d   1      52.409  32.892  53.088  0.00  0.00    -0.193 N 
ATOM      2  N   UNL d   1      51.721  32.953  52.653  0.00  0.00    -0.162 NA
ATOM      3  C   UNL d   1      51.486  33.740  52.633  0.00  0.00     0.109 A 
ATOM      4  C   UNL d   1      52.832  32.202  53.247  0.00  0.00     0.298 C 
ATOM      5  C   UNL d   1      52.616  33.647  53.349  0.00  0.00     0.088 A 
ATOM      6  C   UNL d   1      52.041  34.171  53.064  0.00  0.00     0.041 A 
ATOM      7  O   UNL d   1      53.516  32.242  53.696  0.00  0.00    -0.264 OA
ENDROOT
BRANCH   4   8
ATOM      8  C   UNL d   1      52.569  31.490  52.958  0.00  0.00     0.146 C 
BRANCH   8   9
ATOM      9  N   UNL d   1      52.756  30.794  53.352  0.00  0.00    -0.262 N 
ATOM     10  C   UNL d   1      52.755  30.081  52.950  0.00  0.00     0.322 A 
ATOM     11  C   UNL d   1      52.943  29.382  53.346  0.00  0.00     0.322 A 
ATOM     12  O   UNL d   1      52.565  30.061  52.146  0.00  0.00    -0.261 OA
ATOM     13  O   UNL d   1      52.942  28.663  52.938  0.00  0.00    -0.261 OA
ATOM     14  N   UNL d   1      53.132  29.396  54.143  0.00  0.00    -0.267 N 
ATOM     15  C   UNL d   1      53.133  30.114  54.549  0.00  0.00     0.102 A 
ATOM     16  C   UNL d   1      52.945  30.813  54.153  0.00  0.00     0.102 A 
BRANCH  14  17
ATOM     17  C   UNL d   1      53.320  28.698  54.539  0.00  0.00     0.083 C 
ATOM     18  C   UNL d   1      53.439  28.707  55.357  0.00  0.00     0.021 C 
ENDBRANCH  14  17
ENDBRANCH   8   9
ENDBRANCH   4   8
BRANCH   5  19
ATOM     19  C   UNL d   1      53.263  33.849  53.801  0.00  0.00     0.020 A 
ATOM     20  C   UNL d   1      53.156  34.204  54.532  0.00  0.00     0.028 A 
ATOM     21  C   UNL d   1      53.819  34.407  54.988  0.00  0.00     0.116 A 
ATOM     22  C   UNL d   1      54.572  34.254  54.708  0.00  0.00     0.116 A 
ATOM     23  C   UNL d   1      54.674  33.897  53.970  0.00  0.00     0.026 A 
ATOM     24  C   UNL d   1      54.012  33.695  53.518  0.00  0.00     0.004 A 
BRANCH  21  25
ATOM     25  O   UNL d   1      53.711  34.760  55.717  0.00  0.00    -0.326 OA
ATOM     26  C   UNL d   1      53.093  35.278  55.842  0.00  0.00     0.181 C 
ENDBRANCH  21  25
BRANCH  22  27
ATOM     27  O   UNL d   1      55.220  34.454  55.155  0.00  0.00    -0.326 OA
ATOM     28  C   UNL d   1      55.939  34.087  55.022  0.00  0.00     0.181 C 
ENDBRANCH  22  27
ENDBRANCH   5  19
BRANCH   3  29
ATOM     29  C   UNL d   1      50.820  34.041  52.252  0.00  0.00     0.049 A 
ATOM     30  S   UNL d   1      50.134  34.293  52.605  0.00  0.00    -0.085 SA
ATOM     31  C   UNL d   1      49.611  34.552  52.026  0.00  0.00     0.035 A 
ATOM     32  C   UNL d   1      49.991  34.454  51.295  0.00  0.00     0.007 A 
ATOM     33  C   UNL d   1      50.745  34.136  51.432  0.00  0.00     0.009 A 
ENDBRANCH   3  29
TORSDOF 7
ENDMDL
MODEL 2
REMARK VINA RESULT:      -5.1      2.039      4.427
REMARK  7 active torsions:
REMARK  status: ('A' for Active; 'I' for Inactive)
REMARK       I    between atoms: C_5  and  N_1 
REMARK    1  A    between atoms: C_11  and  C_3 
REMARK    2  A    between atoms: C_12  and  C_5 
REMARK    3  A    between atoms: N_7  and  C_12 
REMARK    4  A    between atoms: C_13  and  C_8 
REMARK    5  A    between atoms: C_29  and  N_10 
REMARK    6  A    between atoms: O_28  and  C_16 
REMARK    7  A    between atoms: O_30  and  C_23 
ROOT
ATOM      1  N   UNL d   1      51.878  33.124  53.054  0.00  0.00    -0.193 N 
ATOM      2  N   UNL d   1      51.805  32.341  52.840  0.00  0.00    -0.162 NA
ATOM      3  C   UNL d   1      52.473  31.931  53.087  0.00  0.00     0.109 A 
ATOM      4  C   UNL d   1      51.333  33.728  52.914  0.00  0.00     0.298 C 
ATOM      5  C   UNL d   1      52.601  33.218  53.442  0.00  0.00     0.088 A 
ATOM      6  C   UNL d   1      52.967  32.475  53.460  0.00  0.00     0.041 A 
ATOM      7  O   UNL d   1      51.498  34.488  53.169  0.00  0.00    -0.264 OA
ENDROOT
BRANCH   4   8
ATOM      8  C   UNL d   1      50.639  33.563  52.525  0.00  0.00     0.146 C 
BRANCH   8   9
ATOM      9  N   UNL d   1      50.032  34.115  52.522  0.00  0.00    -0.262 N 
ATOM     10  C   UNL d   1      49.644  34.297  51.824  0.00  0.00     0.322 A 
ATOM     11  C   UNL d   1      49.033  34.852  51.821  0.00  0.00     0.322 A 
ATOM     12  O   UNL d   1      49.864  33.924  51.121  0.00  0.00    -0.261 OA
ATOM     13  O   UNL d   1      48.643  35.033  51.115  0.00  0.00    -0.261 OA
ATOM     14  N   UNL d   1      48.811  35.224  52.516  0.00  0.00    -0.267 N 
ATOM     15  C   UNL d   1      49.200  35.042  53.219  0.00  0.00     0.102 A 
ATOM     16  C   UNL d   1      49.811  34.488  53.222  0.00  0.00     0.102 A 
BRANCH  14  17
ATOM     17  C   UNL d   1      48.200  35.779  52.514  0.00  0.00     0.083 C 
ATOM     18  C   UNL d   1      48.047  36.226  53.192  0.00  0.00     0.021 C 
ENDBRANCH  14  17
ENDBRANCH   8   9
ENDBRANCH   4   8
BRANCH   5  19
ATOM     19  C   UNL d   1      52.905  33.907  53.752  0.00  0.00     0.020 A 
ATOM     20  C   UNL d   1      53.126  33.939  54.541  0.00  0.00     0.028 A 
ATOM     21  C   UNL d   1      53.435  34.644  54.850  0.00  0.00     0.116 A 
ATOM     22  C   UNL d   1      53.519  35.301  54.370  0.00  0.00     0.116 A 
ATOM     23  C   UNL d   1      53.295  35.263  53.576  0.00  0.00     0.026 A 
ATOM     24  C   UNL d   1      52.987  34.560  53.270  0.00  0.00     0.004 A 
BRANCH  21  25
ATOM     25  O   UNL d   1      53.654  34.674  55.637  0.00  0.00    -0.326 OA
ATOM     26  C   UNL d   1      54.072  34.061  55.977  0.00  0.00     0.181 C 
ENDBRANCH  21  25
BRANCH  22  27
ATOM     27  O   UNL d   1      53.822  35.990  54.674  0.00  0.00    -0.326 OA
ATOM     28  C   UNL d   1      53.494  36.709  54.466  0.00  0.00     0.181 C 
ENDBRANCH  22  27
ENDBRANCH   5  19
BRANCH   3  29
ATOM     29  C   UNL d   1      52.621  31.127  52.980  0.00  0.00     0.049 A 
ATOM     30  S   UNL d   1      52.202  30.512  53.305  0.00  0.00    -0.085 SA
ATOM     31  C   UNL d   1      52.532  29.800  53.058  0.00  0.00     0.035 A 
ATOM     32  C   UNL d   1      53.173  29.989  52.566  0.00  0.00     0.007 A 
ATOM     33  C   UNL d   1      53.231  30.815  52.515  0.00  0.00     0.009 A 
ENDBRANCH   3  29
TORSDOF 7
ENDMDL
MODEL 3
REMARK VINA RESULT:      -4.5      1.853      4.874
REMARK  7 active torsions:
REMARK  status: ('A' for Active; 'I' for Inactive)
REMARK       I    between atoms: C_5  and  N_1 
REMARK    1  A    between atoms: C_11  and  C_3 
REMARK    2  A    between atoms: C_12  and  C_5 
REMARK    3  A    between atoms: N_7  and  C_12 
REMARK    4  A    between atoms: C_13  and  C_8 
REMARK    5  A    between atoms: C_29  and  N_10 
REMARK    6  A    between atoms: O_28  and  C_16 
REMARK    7  A    between atoms: O_30  and  C_23 
ROOT
ATOM      1  N   UNL d   1      53.247  32.865  53.481  0.00  0.00    -0.193 N 
ATOM      2  N   UNL d   1      53.693  33.458  53.822  0.00  0.00    -0.162 NA
ATOM      3  C   UNL d   1      54.259  33.119  54.312  0.00  0.00     0.109 A 
ATOM      4  C   UNL d   1      52.621  32.960  52.954  0.00  0.00     0.298 C 
ATOM      5  C   UNL d   1      53.531  32.140  53.756  0.00  0.00     0.088 A 
ATOM      6  C   UNL d   1      54.159  32.302  54.271  0.00  0.00     0.041 A 
ATOM      7  O   UNL d   1      52.232  32.300  52.664  0.00  0.00    -0.264 OA
ENDROOT
BRANCH   4   8
ATOM      8  C   UNL d   1      52.394  33.707  52.726  0.00  0.00     0.146 C 
BRANCH   8   9
ATOM      9  N   UNL d   1      51.597  33.884  52.641  0.00  0.00    -0.262 N 
ATOM     10  C   UNL d   1      51.300  34.107  51.911  0.00  0.00     0.322 A 
ATOM     11  C   UNL d   1      50.499  34.284  51.826  0.00  0.00     0.322 A 
ATOM     12  O   UNL d   1      51.804  34.153  51.258  0.00  0.00    -0.261 OA
ATOM     13  O   UNL d   1      50.201  34.509  51.088  0.00  0.00    -0.261 OA
ATOM     14  N   UNL d   1      49.995  34.240  52.471  0.00  0.00    -0.267 N 
ATOM     15  C   UNL d   1      50.293  34.016  53.206  0.00  0.00     0.102 A 
ATOM     16  C   UNL d   1      51.094  33.838  53.291  0.00  0.00     0.102 A 
BRANCH  14  17
ATOM     17  C   UNL d   1      49.194  34.417  52.386  0.00  0.00     0.083 C 
ATOM     18  C   UNL d   1      48.858  35.030  52.830  0.00  0.00     0.021 C 
ENDBRANCH  14  17
ENDBRANCH   8   9
ENDBRANCH   4   8
BRANCH   5  19
ATOM     19  C   UNL d   1      53.252  31.400  53.563  0.00  0.00     0.020 A 
ATOM     20  C   UNL d   1      52.994  30.892  54.152  0.00  0.00     0.028 A 
ATOM     21  C   UNL d   1      52.711  30.140  53.948  0.00  0.00     0.116 A 
ATOM     22  C   UNL d   1      52.691  29.907  53.164  0.00  0.00     0.116 A 
ATOM     23  C   UNL d   1      52.952  30.422  52.574  0.00  0.00     0.026 A 
ATOM     24  C   UNL d   1      53.233  31.172  52.779  0.00  0.00     0.004 A 
BRANCH  21  25
ATOM     25  O   UNL d   1      52.454  29.635  54.537  0.00  0.00    -0.326 OA
ATOM     26  C   UNL d   1      52.972  29.355  55.103  0.00  0.00     0.181 C 
ENDBRANCH  21  25
BRANCH  22  27
ATOM     27  O   UNL d   1      52.414  29.170  52.966  0.00  0.00    -0.326 OA
ATOM     28  C   UNL d   1      52.510  28.886  52.205  0.00  0.00     0.181 C 
ENDBRANCH  22  27
ENDBRANCH   5  19
BRANCH   3  29
ATOM     29  C   UNL d   1      54.822  33.522  54.760  0.00  0.00     0.049 A 
ATOM     30  S   UNL d   1      54.757  33.731  55.542  0.00  0.00    -0.085 SA
ATOM     31  C   UNL d   1      55.441  34.126  55.773  0.00  0.00     0.035 A 
ATOM     32  C   UNL d   1      55.938  34.158  55.110  0.00  0.00     0.007 A 
ATOM     33  C   UNL d   1      55.556  33.783  54.477  0.00  0.00     0.009 A 
ENDBRANCH   3  29
TORSDOF 7
ENDMDL
MODEL 4
REMARK VINA RESULT:      -4.4      1.738      4.212
REMARK  7 active torsions:
REMARK  status: ('A' for Active; 'I' for Inactive)
REMARK       I    between atoms: C_5  and  N_1 
REMARK    1  A    between atoms: C_11  and  C_3 
REMARK    2  A    between atoms: C_12  and  C_5 
REMARK    3  A    between atoms: N_7  and  C_12 
REMARK    4  A    between atoms: C_13  and  C_8 
REMARK    5  A    between atoms: C_29  and  N_10 
REMARK    6  A    between atoms: O_28  and  C_16 
REMARK    7  A    between atoms: O_30  and  C_23 
ROOT
ATOM      1  N   UNL d   1      52.812  32.011  53.463  0.00  0.00    -0.193 N 
ATOM      2  N   UNL d   1      52.561  31.253  53.295  0.00  0.00    -0.162 NA
ATOM      3  C   UNL d   1      53.055  30.717  53.675  0.00  0.00     0.109 A 
ATOM      4  C   UNL d   1      52.473  32.714  53.195  0.00  0.00     0.298 C 
ATOM      5  C   UNL d   1      53.473  31.960  53.954  0.00  0.00     0.088 A 
ATOM      6  C   UNL d   1      53.621  31.155  54.083  0.00  0.00     0.041 A 
ATOM      7  O   UNL d   1      52.798  33.430  53.419  0.00  0.00    -0.264 OA
ENDROOT
BRANCH   4   8
ATOM      8  C   UNL d   1      51.820  32.689  52.712  0.00  0.00     0.146 C 
BRANCH   8   9
ATOM      9  N   UNL d   1      51.267  33.295  52.741  0.00  0.00    -0.262 N 
ATOM     10  C   UNL d   1      51.102  33.734  52.069  0.00  0.00     0.322 A 
ATOM     11  C   UNL d   1      50.547  34.344  52.098  0.00  0.00     0.322 A 
ATOM     12  O   UNL d   1      51.493  33.566  51.361  0.00  0.00    -0.261 OA
ATOM     13  O   UNL d   1      50.382  34.785  51.419  0.00  0.00    -0.261 OA
ATOM     14  N   UNL d   1      50.157  34.515  52.799  0.00  0.00    -0.267 N 
ATOM     15  C   UNL d   1      50.322  34.074  53.475  0.00  0.00     0.102 A 
ATOM     16  C   UNL d   1      50.877  33.464  53.446  0.00  0.00     0.102 A 
BRANCH  14  17
ATOM     17  C   UNL d   1      49.602  35.124  52.827  0.00  0.00     0.083 C 
ATOM     18  C   UNL d   1      49.164  35.251  53.517  0.00  0.00     0.021 C 
ENDBRANCH  14  17
ENDBRANCH   8   9
ENDBRANCH   4   8
BRANCH   5  19
ATOM     19  C   UNL d   1      53.906  32.578  54.260  0.00  0.00     0.020 A 
ATOM     20  C   UNL d   1      54.581  32.837  53.873  0.00  0.00     0.028 A 
ATOM     21  C   UNL d   1      55.016  33.467  54.190  0.00  0.00     0.116 A 
ATOM     22  C   UNL d   1      54.774  33.828  54.882  0.00  0.00     0.116 A 
ATOM     23  C   UNL d   1      54.093  33.564  55.268  0.00  0.00     0.026 A 
ATOM     24  C   UNL d   1      53.660  32.935  54.951  0.00  0.00     0.004 A 
BRANCH  21  25
ATOM     25  O   UNL d   1      55.690  33.724  53.802  0.00  0.00    -0.326 OA
ATOM     26  C   UNL d   1      55.938  33.362  53.114  0.00  0.00     0.181 C 
ENDBRANCH  21  25
BRANCH  22  27
ATOM     27  O   UNL d   1      55.201  34.445  55.191  0.00  0.00    -0.326 OA
ATOM     28  C   UNL d   1      54.828  35.022  55.634  0.00  0.00     0.181 C 
ENDBRANCH  22  27
ENDBRANCH   5  19
BRANCH   3  29
ATOM     29  C   UNL d   1      52.995  29.895  53.650  0.00  0.00     0.049 A 
ATOM     30  S   UNL d   1      52.646  29.454  53.065  0.00  0.00    -0.085 SA
ATOM     31  C   UNL d   1      52.706  28.656  53.255  0.00  0.00     0.035 A 
ATOM     32  C   UNL d   1      53.106  28.610  53.981  0.00  0.00     0.007 A 
ATOM     33  C   UNL d   1      53.287  29.380  54.230  0.00  0.00     0.009 A 
ENDBRANCH   3  29
TORSDOF 7
ENDMDL
MODEL 5
REMARK VINA RESULT:      -3.0      1.677      3.481
REMARK  7 active torsions:
REMARK  status: ('A' for Active; 'I' for Inactive)
REMARK       I    between atoms: C_5  and  N_1 
REMARK    1  A    between atoms: C_11  and  C_3 
REMARK    2  A    between atoms: C_12  and  C_5 
REMARK    3  A    between atoms: N_7  and  C_12 
REMARK    4  A    between atoms: C_13  and  C_8 
REMARK    5  A    between atoms: C_29  and  N_10 
REMARK    6  A    between atoms: O_28  and  C_16 
REMARK    7  A    between atoms: O_30  and  C_23 
ROOT
ATOM      1  N   UNL d   1      53.343  32.740  53.459  0.00  0.00    -0.193 N 
ATOM      2  N   UNL d   1      54.068  32.798  53.830  0.00  0.00    -0.162 NA
ATOM      3  C   UNL d   1      54.116  33.524  54.213  0.00  0.00     0.109 A 
ATOM      4  C   UNL d   1      53.067  32.104  53.012  0.00  0.00     0.298 C 
ATOM      5  C   UNL d   1      52.923  33.436  53.606  0.00  0.00     0.088 A 
ATOM      6  C   UNL d   1      53.406  33.919  54.074  0.00  0.00     0.041 A 
ATOM      7  O   UNL d   1      52.321  32.139  52.677  0.00  0.00    -0.264 OA
ENDROOT
BRANCH   4   8
ATOM      8  C   UNL d   1      53.536  31.449  52.909  0.00  0.00     0.146 C 
BRANCH   8   9
ATOM      9  N   UNL d   1      53.356  30.751  53.303  0.00  0.00    -0.262 N 
ATOM     10  C   UNL d   1      53.015  30.126  52.899  0.00  0.00     0.322 A 
ATOM     11  C   UNL d   1      52.835  29.425  53.295  0.00  0.00     0.322 A 
ATOM     12  O   UNL d   1      52.853  30.197  52.092  0.00  0.00    -0.261 OA
ATOM     13  O   UNL d   1      52.491  28.795  52.885  0.00  0.00    -0.261 OA
ATOM     14  N   UNL d   1      52.994  29.350  54.096  0.00  0.00    -0.267 N 
ATOM     15  C   UNL d   1      53.337  29.979  54.504  0.00  0.00     0.102 A 
ATOM     16  C   UNL d   1      53.518  30.679  54.108  0.00  0.00     0.102 A 
BRANCH  14  17
ATOM     17  C   UNL d   1      52.813  28.649  54.492  0.00  0.00     0.083 C 
ATOM     18  C   UNL d   1      53.258  28.422  55.151  0.00  0.00     0.021 C 
ENDBRANCH  14  17
ENDBRANCH   8   9
ENDBRANCH   4   8
BRANCH   5  19
ATOM     19  C   UNL d   1      52.175  33.621  53.344  0.00  0.00     0.020 A 
ATOM     20  C   UNL d   1      52.074  33.992  52.620  0.00  0.00     0.028 A 
ATOM     21  C   UNL d   1      51.309  34.177  52.359  0.00  0.00     0.116 A 
ATOM     22  C   UNL d   1      50.661  33.991  52.821  0.00  0.00     0.116 A 
ATOM     23  C   UNL d   1      50.768  33.617  53.550  0.00  0.00     0.026 A 
ATOM     24  C   UNL d   1      51.531  33.433  53.808  0.00  0.00     0.004 A 
BRANCH  21  25
ATOM     25  O   UNL d   1      51.210  34.547  51.637  0.00  0.00    -0.326 OA
ATOM     26  C   UNL d   1      51.820  34.574  51.095  0.00  0.00     0.181 C 
ENDBRANCH  21  25
BRANCH  22  27
ATOM     27  O   UNL d   1      49.912  34.173  52.565  0.00  0.00    -0.326 OA
ATOM     28  C   UNL d   1      49.396  34.573  53.056  0.00  0.00     0.181 C 
ENDBRANCH  22  27
ENDBRANCH   5  19
BRANCH   3  29
ATOM     29  C   UNL d   1      54.754  33.802  54.653  0.00  0.00     0.049 A 
ATOM     30  S   UNL d   1      55.450  34.100  54.360  0.00  0.00    -0.085 SA
ATOM     31  C   UNL d   1      55.938  34.315  54.986  0.00  0.00     0.035 A 
ATOM     32  C   UNL d   1      55.525  34.142  55.684  0.00  0.00     0.007 A 
ATOM     33  C   UNL d   1      54.787  33.822  55.481  0.00  0.00     0.009 A 
ENDBRANCH   3  29
TORSDOF 7
ENDMDL
