MODEL 1
REMARK VINA RESULT:      -2.4      0.000      0.000
REMARK  3 active torsions:
REMARK  status: ('A' for Active; 'I' for Inactive)
REMARK    1  A    between atoms: C_6  and  C_1 
REMARK    2  A    between atoms: O_2  and  C_6 
REMARK    3  A    between atoms: C_3  and  O_2 
ROOT
ATOM      1  C   UNL d   1      32.578  22.421 -20.689  0.00  0.00     0.134 A 
ATOM      2  C   UNL d   1      32.123  23.106 -20.761  0.00  0.00     0.218 A 
ATOM      3  O   UNL d   1      31.617  23.203 -21.405  0.00  0.00    -0.284 OA
ATOM      4  C   UNL d   1      33.081  22.321 -20.051  0.00  0.00     0.028 A 
ATOM      5  C   UNL d   1      32.168  23.696 -20.196  0.00  0.00     0.044 A 
ATOM      6  C   UNL d   1      32.677  23.602 -19.545  0.00  0.00     0.003 A 
ATOM      7  C   UNL d   1      33.132  22.917 -19.473  0.00  0.00     0.002 A 
ENDROOT
BRANCH   1   8
ATOM      8  O   UNL d   1      32.530  21.828 -21.260  0.00  0.00    -0.316 OA
BRANCH   8   9
ATOM      9  C   UNL d   1      33.136  21.261 -21.316  0.00  0.00     0.246 C 
BRANCH   9  10
ATOM     10  C   UNL d   1      33.079  20.660 -21.874  0.00  0.00     0.217 C 
ATOM     11  O   UNL d   1      32.855  19.903 -21.660  0.00  0.00    -0.645 OA
ATOM     12  O   UNL d   1      33.241  20.782 -22.671  0.00  0.00    -0.645 OA
ENDBRANCH   9  10
ENDBRANCH   8   9
ENDBRANCH   1   8
TORSDOF 3
ENDMDL
MODEL 2
REMARK VINA RESULT:      -2.3      6.410      7.187
REMARK  3 active torsions:
REMARK  status: ('A' for Active; 'I' for Inactive)
REMARK    1  A    between atoms: C_6  and  C_1 
REMARK    2  A    between atoms: O_2  and  C_6 
REMARK    3  A    between atoms: C_3  and  O_2 
ROOT
ATOM      1  C   UNL d   1      30.635  16.597 -23.915  0.00  0.00     0.134 A 
ATOM      2  C   UNL d   1      31.331  16.302 -23.585  0.00  0.00     0.218 A 
ATOM      3  O   UNL d   1      31.313  15.627 -23.112  0.00  0.00    -0.284 OA
ATOM      4  C   UNL d   1      30.648  17.267 -24.385  0.00  0.00     0.028 A 
ATOM      5  C   UNL d   1      32.047  16.674 -23.723  0.00  0.00     0.044 A 
ATOM      6  C   UNL d   1      32.068  17.355 -24.200  0.00  0.00     0.003 A 
ATOM      7  C   UNL d   1      31.372  17.650 -24.530  0.00  0.00     0.002 A 
ENDROOT
BRANCH   1   8
ATOM      8  O   UNL d   1      29.915  16.220 -23.774  0.00  0.00    -0.316 OA
BRANCH   8   9
ATOM      9  C   UNL d   1      29.209  16.561 -24.052  0.00  0.00     0.246 C 
BRANCH   9  10
ATOM     10  C   UNL d   1      28.488  16.220 -23.855  0.00  0.00     0.217 C 
ATOM     11  O   UNL d   1      27.982  16.577 -23.321  0.00  0.00    -0.645 OA
ATOM     12  O   UNL d   1      28.235  15.508 -24.177  0.00  0.00    -0.645 OA
ENDBRANCH   9  10
ENDBRANCH   8   9
ENDBRANCH   1   8
TORSDOF 3
ENDMDL
MODEL 3
REMARK VINA RESULT:      -2.3      5.919      7.045
REMARK  3 active torsions:
REMARK  status: ('A' for Active; 'I' for Inactive)
REMARK    1  A    between atoms: C_6  and  C_1 
REMARK    2  A    between atoms: O_2  and  C_6 
REMARK    3  A    between atoms: C_3  and  O_2 
ROOT
ATOM      1  C   UNL d   1      29.744  16.595 -23.920  0.00  0.00     0.134 A 
ATOM      2  C   UNL d   1      28.951  16.810 -23.992  0.00  0.00     0.218 A 
ATOM      3  O   UNL d   1      28.740  17.487 -24.412  0.00  0.00    -0.284 OA
ATOM      4  C   UNL d   1      29.957  15.924 -23.503  0.00  0.00     0.028 A 
ATOM      5  C   UNL d   1      28.364  16.355 -23.648  0.00  0.00     0.044 A 
ATOM      6  C   UNL d   1      28.572  15.671 -23.223  0.00  0.00     0.003 A 
ATOM      7  C   UNL d   1      29.366  15.456 -23.151  0.00  0.00     0.002 A 
ENDROOT
BRANCH   1   8
ATOM      8  O   UNL d   1      30.333  17.056 -24.267  0.00  0.00    -0.316 OA
BRANCH   8   9
ATOM      9  C   UNL d   1      31.126  16.953 -24.038  0.00  0.00     0.246 C 
BRANCH   9  10
ATOM     10  C   UNL d   1      31.706  17.444 -24.350  0.00  0.00     0.217 C 
ATOM     11  O   UNL d   1      31.992  18.083 -23.927  0.00  0.00    -0.645 OA
ATOM     12  O   UNL d   1      32.030  17.326 -25.095  0.00  0.00    -0.645 OA
ENDBRANCH   9  10
ENDBRANCH   8   9
ENDBRANCH   1   8
TORSDOF 3
ENDMDL
MODEL 4
REMARK VINA RESULT:      -2.3      1.968      3.357
REMARK  3 active torsions:
REMARK  status: ('A' for Active; 'I' for Inactive)
REMARK    1  A    between atoms: C_6  and  C_1 
REMARK    2  A    between atoms: O_2  and  C_6 
REMARK    3  A    between atoms: C_3  and  O_2 
ROOT
ATOM      1  C   UNL d   1      32.543  23.001 -20.014  0.00  0.00     0.134 A 
ATOM      2  C   UNL d   1      32.700  22.318 -20.449  0.00  0.00     0.218 A 
ATOM      3  O   UNL d   1      32.952  21.631 -20.067  0.00  0.00    -0.284 OA
ATOM      4  C   UNL d   1      32.293  23.684 -20.390  0.00  0.00     0.028 A 
ATOM      5  C   UNL d   1      32.609  22.311 -21.262  0.00  0.00     0.044 A 
ATOM      6  C   UNL d   1      32.356  23.002 -21.650  0.00  0.00     0.003 A 
ATOM      7  C   UNL d   1      32.198  23.685 -21.216  0.00  0.00     0.002 A 
ENDROOT
BRANCH   1   8
ATOM      8  O   UNL d   1      32.636  23.004 -19.195  0.00  0.00    -0.316 OA
BRANCH   8   9
ATOM      9  C   UNL d   1      32.475  23.697 -18.765  0.00  0.00     0.246 C 
BRANCH   9  10
ATOM     10  C   UNL d   1      32.519  23.685 -17.944  0.00  0.00     0.217 C 
ATOM     11  O   UNL d   1      33.241  23.700 -17.558  0.00  0.00    -0.645 OA
ATOM     12  O   UNL d   1      31.851  23.657 -17.467  0.00  0.00    -0.645 OA
ENDBRANCH   9  10
ENDBRANCH   8   9
ENDBRANCH   1   8
TORSDOF 3
ENDMDL
MODEL 5
REMARK VINA RESULT:      -2.1      4.298      5.533
REMARK  3 active torsions:
REMARK  status: ('A' for Active; 'I' for Inactive)
REMARK    1  A    between atoms: C_6  and  C_1 
REMARK    2  A    between atoms: O_2  and  C_6 
REMARK    3  A    between atoms: C_3  and  O_2 
ROOT
ATOM      1  C   UNL d   1      32.506  18.034 -23.683  0.00  0.00     0.134 A 
ATOM      2  C   UNL d   1      32.905  18.585 -23.215  0.00  0.00     0.218 A 
ATOM      3  O   UNL d   1      32.974  18.467 -22.402  0.00  0.00    -0.284 OA
ATOM      4  C   UNL d   1      32.436  18.148 -24.491  0.00  0.00     0.028 A 
ATOM      5  C   UNL d   1      33.236  19.254 -23.551  0.00  0.00     0.044 A 
ATOM      6  C   UNL d   1      33.168  19.376 -24.371  0.00  0.00     0.003 A 
ATOM      7  C   UNL d   1      32.769  18.826 -24.839  0.00  0.00     0.002 A 
ENDROOT
BRANCH   1   8
ATOM      8  O   UNL d   1      32.174  17.361 -23.342  0.00  0.00    -0.316 OA
BRANCH   8   9
ATOM      9  C   UNL d   1      31.734  16.835 -23.812  0.00  0.00     0.246 C 
BRANCH   9  10
ATOM     10  C   UNL d   1      31.416  16.157 -23.474  0.00  0.00     0.217 C 
ATOM     11  O   UNL d   1      30.624  16.114 -23.274  0.00  0.00    -0.645 OA
ATOM     12  O   UNL d   1      31.869  15.489 -23.317  0.00  0.00    -0.645 OA
ENDBRANCH   9  10
ENDBRANCH   8   9
ENDBRANCH   1   8
TORSDOF 3
ENDMDL
MODEL 6
REMARK VINA RESULT:      -2.1      4.999      6.547
REMARK  3 active torsions:
REMARK  status: ('A' for Active; 'I' for Inactive)
REMARK    1  A    between atoms: C_6  and  C_1 
REMARK    2  A    between atoms: O_2  and  C_6 
REMARK    3  A    between atoms: C_3  and  O_2 
ROOT
ATOM      1  C   UNL d   1      30.836  16.895 -23.986  0.00  0.00     0.134 A 
ATOM      2  C   UNL d   1      30.101  16.998 -24.347  0.00  0.00     0.218 A 
ATOM      3  O   UNL d   1      29.925  17.703 -24.738  0.00  0.00    -0.284 OA
ATOM      4  C   UNL d   1      31.014  16.197 -23.597  0.00  0.00     0.028 A 
ATOM      5  C   UNL d   1      29.539  16.404 -24.323  0.00  0.00     0.044 A 
ATOM      6  C   UNL d   1      29.712  15.692 -23.930  0.00  0.00     0.003 A 
ATOM      7  C   UNL d   1      30.447  15.589 -23.568  0.00  0.00     0.002 A 
ENDROOT
BRANCH   1   8
ATOM      8  O   UNL d   1      31.400  17.495 -24.012  0.00  0.00    -0.316 OA
BRANCH   8   9
ATOM      9  C   UNL d   1      32.116  17.406 -23.598  0.00  0.00     0.246 C 
BRANCH   9  10
ATOM     10  C   UNL d   1      32.662  18.021 -23.594  0.00  0.00     0.217 C 
ATOM     11  O   UNL d   1      32.699  18.550 -22.971  0.00  0.00    -0.645 OA
ATOM     12  O   UNL d   1      33.197  18.139 -24.206  0.00  0.00    -0.645 OA
ENDBRANCH   9  10
ENDBRANCH   8   9
ENDBRANCH   1   8
TORSDOF 3
ENDMDL
MODEL 7
REMARK VINA RESULT:      -2.0      1.245      1.851
REMARK  3 active torsions:
REMARK  status: ('A' for Active; 'I' for Inactive)
REMARK    1  A    between atoms: C_6  and  C_1 
REMARK    2  A    between atoms: O_2  and  C_6 
REMARK    3  A    between atoms: C_3  and  O_2 
ROOT
ATOM      1  C   UNL d   1      32.845  21.203 -21.761  0.00  0.00     0.134 A 
ATOM      2  C   UNL d   1      32.936  21.995 -21.973  0.00  0.00     0.218 A 
ATOM      3  O   UNL d   1      33.241  22.196 -22.713  0.00  0.00    -0.284 OA
ATOM      4  C   UNL d   1      32.542  21.001 -21.028  0.00  0.00     0.028 A 
ATOM      5  C   UNL d   1      32.724  22.592 -21.454  0.00  0.00     0.044 A 
ATOM      6  C   UNL d   1      32.416  22.393 -20.708  0.00  0.00     0.003 A 
ATOM      7  C   UNL d   1      32.326  21.601 -20.496  0.00  0.00     0.002 A 
ENDROOT
BRANCH   1   8
ATOM      8  O   UNL d   1      33.059  20.605 -22.287  0.00  0.00    -0.316 OA
BRANCH   8   9
ATOM      9  C   UNL d   1      32.909  19.811 -22.090  0.00  0.00     0.246 C 
BRANCH   9  10
ATOM     10  C   UNL d   1      33.101  19.217 -22.625  0.00  0.00     0.217 C 
ATOM     11  O   UNL d   1      33.161  19.372 -23.426  0.00  0.00    -0.645 OA
ATOM     12  O   UNL d   1      33.241  18.442 -22.392  0.00  0.00    -0.645 OA
ENDBRANCH   9  10
ENDBRANCH   8   9
ENDBRANCH   1   8
TORSDOF 3
ENDMDL
