MODEL 1
REMARK VINA RESULT:      63.5      0.000      0.000
REMARK  4 active torsions:
REMARK  status: ('A' for Active; 'I' for Inactive)
REMARK    1  A    between atoms: C_5  and  N_1 
REMARK    2  A    between atoms: C_7  and  C_3 
REMARK    3  A    between atoms: C_8  and  C_4 
REMARK    4  A    between atoms: N_10  and  C_5 
ROOT
ATOM      1  N   UNL d   1     -58.407 -99.176 -44.458  0.00  0.00    -0.203 N 
ATOM      2  N   UNL d   1     -58.928 -99.192 -45.102  0.00  0.00    -0.163 NA
ATOM      3  C   UNL d   1     -58.522 -99.069 -45.788  0.00  0.00     0.103 A 
ATOM      4  C   UNL d   1     -57.638 -99.037 -44.749  0.00  0.00     0.087 A 
ATOM      5  C   UNL d   1     -57.701 -98.970 -45.572  0.00  0.00     0.040 A 
ENDROOT
BRANCH   3   6
ATOM      6  C   UNL d   1     -58.860 -99.047 -46.549  0.00  0.00     0.019 A 
ATOM      7  C   UNL d   1     -59.639 -99.283 -46.672  0.00  0.00     0.002 A 
ATOM      8  C   UNL d   1     -59.959 -99.254 -47.444  0.00  0.00     0.000 A 
ATOM      9  C   UNL d   1     -59.501 -98.993 -48.069  0.00  0.00     0.000 A 
ATOM     10  C   UNL d   1     -58.722 -98.761 -47.927  0.00  0.00     0.000 A 
ATOM     11  C   UNL d   1     -59.824 -98.993 -48.680  0.00  0.00     0.000 C 
ATOM     12  C   UNL d   1     -58.406 -98.787 -47.182  0.00  0.00     0.002 A 
ENDBRANCH   3   6
BRANCH   1  13
ATOM     13  C   UNL d   1     -58.611 -99.281 -43.646  0.00  0.00     0.222 C 
ATOM     14  S   UNL d   1     -58.056 -99.659 -43.130  0.00  0.00    -0.037 SA
BRANCH  13  15
ATOM     15  N   UNL d   1     -59.354 -99.018 -43.339  0.00  0.00    -0.214 NA
ATOM     16  C   UNL d   1     -59.409 -98.758 -42.551  0.00  0.00     0.122 C 
ENDBRANCH  13  15
ENDBRANCH   1  13
BRANCH   4  17
ATOM     17  C   UNL d   1     -56.929 -98.974 -44.328  0.00  0.00     0.018 A 
ATOM     18  C   UNL d   1     -56.928 -98.822 -43.522  0.00  0.00     0.002 A 
ATOM     19  C   UNL d   1     -56.221 -98.759 -43.104  0.00  0.00     0.011 A 
ATOM     20  C   UNL d   1     -55.506 -98.849 -43.500  0.00  0.00     0.058 A 
ATOM     21  C   UNL d   1     -55.494 -98.997 -44.289  0.00  0.00     0.011 A 
ATOM     22 CL   UNL d   1     -54.797 -98.780 -43.056  0.00  0.00    -0.082 Cl
ATOM     23  C   UNL d   1     -56.203 -99.061 -44.710  0.00  0.00     0.002 A 
ENDBRANCH   4  17
TORSDOF 4
ENDMDL
