MODEL 1
REMARK VINA RESULT:      -0.1      0.000      0.000
REMARK  6 active torsions:
REMARK  status: ('A' for Active; 'I' for Inactive)
REMARK    1  A    between atoms: N_4  and  C_2 
REMARK    2  A    between atoms: C_9  and  N_4 
REMARK    3  A    between atoms: O_16  and  C_8 
REMARK    4  A    between atoms: O_24  and  C_10 
REMARK    5  A    between atoms: C_22  and  O_16 
REMARK    6  A    between atoms: C_26  and  C_22 
ROOT
ATOM      1  C   UNL d   1     -41.493-122.441 -52.584  0.00  0.00     0.056 A 
ATOM      2  C   UNL d   1     -41.565-122.407 -53.403  0.00  0.00     0.166 A 
ATOM      3  C   UNL d   1     -41.273-123.147 -52.217  0.00  0.00     0.088 A 
ATOM      4  C   UNL d   1     -41.642-121.769 -52.130  0.00  0.00     0.031 A 
ATOM      5  N   UNL d   1     -41.416-123.082 -53.863  0.00  0.00    -0.205 NA
ATOM      6  C   UNL d   1     -41.201-123.180 -51.397  0.00  0.00     0.046 A 
ATOM      7  C   UNL d   1     -41.350-122.509 -50.944  0.00  0.00     0.124 A 
ATOM      8  C   UNL d   1     -41.570-121.803 -51.312  0.00  0.00     0.117 A 
ATOM      9  N   UNL d   1     -41.124-123.817 -52.669  0.00  0.00    -0.224 NA
ATOM     10  C   UNL d   1     -41.195-123.788 -53.496  0.00  0.00     0.200 A 
ENDROOT
BRANCH   2  11
ATOM     11  N   UNL d   1     -41.788-121.695 -53.773  0.00  0.00    -0.224 NA
BRANCH  11  12
ATOM     12  C   UNL d   1     -41.914-121.683 -54.583  0.00  0.00     0.110 A 
ATOM     13  C   UNL d   1     -42.666-121.548 -54.896  0.00  0.00     0.158 A 
ATOM     14  C   UNL d   1     -42.795-121.536 -55.708  0.00  0.00     0.038 A 
ATOM     15  F   UNL d   1     -43.307-121.423 -54.378  0.00  0.00    -0.203 F 
ATOM     16  C   UNL d   1     -42.154-121.662 -56.226  0.00  0.00     0.037 A 
ATOM     17  C   UNL d   1     -41.393-121.798 -55.915  0.00  0.00     0.008 A 
ATOM     18 BR   UNL d   1     -42.282-121.650 -57.050  0.00  0.00    -0.049 Br
ATOM     19  C   UNL d   1     -41.273-121.808 -55.101  0.00  0.00     0.022 A 
ENDBRANCH  11  12
ENDBRANCH   2  11
BRANCH   8  20
ATOM     20  O   UNL d   1     -41.720-121.126 -50.848  0.00  0.00    -0.326 OA
ATOM     21  C   UNL d   1     -41.324-120.419 -51.008  0.00  0.00     0.181 C 
ENDBRANCH   8  20
BRANCH   7  22
ATOM     22  O   UNL d   1     -41.278-122.540 -50.112  0.00  0.00    -0.303 OA
BRANCH  22  23
ATOM     23  C   UNL d   1     -41.257-123.270 -49.723  0.00  0.00     0.123 C 
BRANCH  23  24
ATOM     24  C   UNL d   1     -41.582-123.338 -48.965  0.00  0.00     0.028 A 
ATOM     25  C   UNL d   1     -41.146-123.097 -48.301  0.00  0.00     0.021 A 
ATOM     26  C   UNL d   1     -41.476-123.168 -47.549  0.00  0.00     0.080 A 
ATOM     27  N   UNL d   1     -42.239-123.476 -47.447  0.00  0.00    -0.301 N 
ATOM     28  C   UNL d   1     -42.672-123.715 -48.107  0.00  0.00     0.080 A 
ATOM     29  C   UNL d   1     -42.571-123.546 -46.678  0.00  0.00     0.100 C 
ATOM     30  C   UNL d   1     -42.344-123.646 -48.868  0.00  0.00     0.021 A 
ENDBRANCH  23  24
ENDBRANCH  22  23
ENDBRANCH   7  22
TORSDOF 6
ENDMDL
