MODEL 1
REMARK VINA RESULT:      -9.4      0.000      0.000
REMARK  9 active torsions:
REMARK  status: ('A' for Active; 'I' for Inactive)
REMARK    1  A    between atoms: C_5  and  C_1 
REMARK    2  A    between atoms: N_11  and  C_2 
REMARK    3  A    between atoms: C_6  and  C_5 
REMARK    4  A    between atoms: C_7  and  C_5 
REMARK       I    between atoms: N_13  and  C_6 
REMARK    5  A    between atoms: C_16  and  N_11 
REMARK    6  A    between atoms: C_17  and  N_11 
REMARK    7  A    between atoms: C_14  and  N_13 
REMARK    8  A    between atoms: C_20  and  C_14 
REMARK    9  A    between atoms: C_15  and  C_20 
ROOT
ATOM      1  C   UNL d   1      52.058  33.137  52.944  0.00  0.00     0.117 A 
ATOM      2  C   UNL d   1      52.662  33.433  53.420  0.00  0.00     0.145 A 
ATOM      3  N   UNL d   1      52.036  32.335  52.757  0.00  0.00    -0.241 NA
ATOM      4  N   UNL d   1      53.245  32.928  53.710  0.00  0.00    -0.230 NA
ATOM      5  C   UNL d   1      53.222  32.127  53.522  0.00  0.00     0.100 A 
ATOM      6  C   UNL d   1      52.618  31.831  53.046  0.00  0.00     0.099 A 
ATOM      7  C   UNL d   1      53.805  31.622  53.812  0.00  0.00     0.021 A 
ATOM      8  C   UNL d   1      52.596  31.029  52.858  0.00  0.00     0.021 A 
ATOM      9  C   UNL d   1      53.784  30.817  53.625  0.00  0.00     0.002 A 
ATOM     10  C   UNL d   1      53.179  30.521  53.148  0.00  0.00     0.002 A 
ENDROOT
BRANCH   1  11
ATOM     11  C   UNL d   1      51.559  33.766  52.738  0.00  0.00     0.099 C 
BRANCH  11  12
ATOM     12  C   UNL d   1      50.799  33.976  52.985  0.00  0.00     0.282 C 
ATOM     13  O   UNL d   1      50.486  33.670  53.700  0.00  0.00    -0.265 OA
ATOM     14  N   UNL d   1      50.343  34.493  52.523  0.00  0.00    -0.206 NA
BRANCH  14  15
ATOM     15  C   UNL d   1      49.572  34.708  52.770  0.00  0.00     0.102 C 
BRANCH  15  16
ATOM     16  C   UNL d   1      48.919  34.908  52.318  0.00  0.00     0.021 C 
BRANCH  16  17
ATOM     17  C   UNL d   1      48.396  35.489  52.573  0.00  0.00     0.002 A 
ATOM     18  C   UNL d   1      47.806  35.752  52.059  0.00  0.00     0.000 A 
ATOM     19  C   UNL d   1      47.281  36.330  52.304  0.00  0.00     0.000 A 
ATOM     20  C   UNL d   1      47.342  36.650  53.065  0.00  0.00     0.000 A 
ATOM     21  C   UNL d   1      47.935  36.381  53.574  0.00  0.00     0.000 A 
ATOM     22  C   UNL d   1      48.458  35.802  53.323  0.00  0.00     0.000 A 
ENDBRANCH  16  17
ENDBRANCH  15  16
ENDBRANCH  14  15
ENDBRANCH  11  12
BRANCH  11  23
ATOM     23  C   UNL d   1      51.851  34.305  52.181  0.00  0.00     0.129 C 
ATOM     24  N   UNL d   1      51.790  34.385  51.362  0.00  0.00    -0.146 N 
ENDBRANCH  11  23
ENDBRANCH   1  11
BRANCH   2  25
ATOM     25  N   UNL d   1      52.540  34.247  53.512  0.00  0.00    -0.192 NA
BRANCH  25  26
ATOM     26  C   UNL d   1      53.153  34.779  53.651  0.00  0.00     0.057 C 
ATOM     27  C   UNL d   1      52.685  35.170  54.565  0.00  0.00     0.014 C 
ENDBRANCH  25  26
BRANCH  25  28
ATOM     28  C   UNL d   1      52.631  34.896  53.606  0.00  0.00     0.057 C 
ATOM     29  C   UNL d   1      53.151  35.428  54.313  0.00  0.00     0.014 C 
ENDBRANCH  25  28
ENDBRANCH   2  25
TORSDOF 9
ENDMDL
MODEL 2
REMARK VINA RESULT:      -8.7      1.215      1.838
REMARK  9 active torsions:
REMARK  status: ('A' for Active; 'I' for Inactive)
REMARK    1  A    between atoms: C_5  and  C_1 
REMARK    2  A    between atoms: N_11  and  C_2 
REMARK    3  A    between atoms: C_6  and  C_5 
REMARK    4  A    between atoms: C_7  and  C_5 
REMARK       I    between atoms: N_13  and  C_6 
REMARK    5  A    between atoms: C_16  and  N_11 
REMARK    6  A    between atoms: C_17  and  N_11 
REMARK    7  A    between atoms: C_14  and  N_13 
REMARK    8  A    between atoms: C_20  and  C_14 
REMARK    9  A    between atoms: C_15  and  C_20 
ROOT
ATOM      1  C   UNL d   1      53.084  32.482  53.373  0.00  0.00     0.117 A 
ATOM      2  C   UNL d   1      53.531  32.342  54.052  0.00  0.00     0.145 A 
ATOM      3  N   UNL d   1      52.802  31.849  52.928  0.00  0.00    -0.241 NA
ATOM      4  N   UNL d   1      53.696  31.569  54.286  0.00  0.00    -0.230 NA
ATOM      5  C   UNL d   1      53.413  30.938  53.841  0.00  0.00     0.100 A 
ATOM      6  C   UNL d   1      52.966  31.078  53.162  0.00  0.00     0.099 A 
ATOM      7  C   UNL d   1      53.577  30.165  54.075  0.00  0.00     0.021 A 
ATOM      8  C   UNL d   1      52.683  30.445  52.717  0.00  0.00     0.021 A 
ATOM      9  C   UNL d   1      53.294  29.530  53.628  0.00  0.00     0.002 A 
ATOM     10  C   UNL d   1      52.847  29.670  52.949  0.00  0.00     0.002 A 
ENDROOT
BRANCH   1  11
ATOM     11  C   UNL d   1      53.010  33.301  53.278  0.00  0.00     0.099 C 
BRANCH  11  12
ATOM     12  C   UNL d   1      52.365  33.813  53.348  0.00  0.00     0.282 C 
ATOM     13  O   UNL d   1      52.419  34.498  53.830  0.00  0.00    -0.265 OA
ATOM     14  N   UNL d   1      51.661  33.650  52.941  0.00  0.00    -0.206 NA
BRANCH  14  15
ATOM     15  C   UNL d   1      51.006  34.167  53.010  0.00  0.00     0.102 C 
BRANCH  15  16
ATOM     16  C   UNL d   1      50.206  33.991  53.042  0.00  0.00     0.021 C 
BRANCH  16  17
ATOM     17  C   UNL d   1      49.656  34.472  52.664  0.00  0.00     0.002 A 
ATOM     18  C   UNL d   1      49.290  35.075  53.091  0.00  0.00     0.000 A 
ATOM     19  C   UNL d   1      48.741  35.558  52.722  0.00  0.00     0.000 A 
ATOM     20  C   UNL d   1      48.555  35.441  51.924  0.00  0.00     0.000 A 
ATOM     21  C   UNL d   1      48.926  34.834  51.504  0.00  0.00     0.000 A 
ATOM     22  C   UNL d   1      49.475  34.354  51.878  0.00  0.00     0.000 A 
ENDBRANCH  16  17
ENDBRANCH  15  16
ENDBRANCH  14  15
ENDBRANCH  11  12
BRANCH  11  23
ATOM     23  C   UNL d   1      53.697  33.716  53.071  0.00  0.00     0.129 C 
ATOM     24  N   UNL d   1      53.953  34.119  52.399  0.00  0.00    -0.146 N 
ENDBRANCH  11  23
ENDBRANCH   1  11
BRANCH   2  25
ATOM     25  N   UNL d   1      53.735  33.074  54.379  0.00  0.00    -0.192 NA
BRANCH  25  26
ATOM     26  C   UNL d   1      53.901  33.177  55.179  0.00  0.00     0.057 C 
ATOM     27  C   UNL d   1      54.915  33.552  54.982  0.00  0.00     0.014 C 
ENDBRANCH  25  26
BRANCH  25  28
ATOM     28  C   UNL d   1      53.907  33.556  54.800  0.00  0.00     0.057 C 
ATOM     29  C   UNL d   1      54.571  33.592  55.580  0.00  0.00     0.014 C 
ENDBRANCH  25  28
ENDBRANCH   2  25
TORSDOF 9
ENDMDL
MODEL 3
REMARK VINA RESULT:      -7.6      1.020      2.352
REMARK  9 active torsions:
REMARK  status: ('A' for Active; 'I' for Inactive)
REMARK    1  A    between atoms: C_5  and  C_1 
REMARK    2  A    between atoms: N_11  and  C_2 
REMARK    3  A    between atoms: C_6  and  C_5 
REMARK    4  A    between atoms: C_7  and  C_5 
REMARK       I    between atoms: N_13  and  C_6 
REMARK    5  A    between atoms: C_16  and  N_11 
REMARK    6  A    between atoms: C_17  and  N_11 
REMARK    7  A    between atoms: C_14  and  N_13 
REMARK    8  A    between atoms: C_20  and  C_14 
REMARK    9  A    between atoms: C_15  and  C_20 
ROOT
ATOM      1  C   UNL d   1      52.629  33.645  53.650  0.00  0.00     0.117 A 
ATOM      2  C   UNL d   1      52.926  32.876  53.671  0.00  0.00     0.145 A 
ATOM      3  N   UNL d   1      52.972  34.232  54.114  0.00  0.00    -0.241 NA
ATOM      4  N   UNL d   1      53.567  32.694  54.157  0.00  0.00    -0.230 NA
ATOM      5  C   UNL d   1      53.909  33.282  54.620  0.00  0.00     0.100 A 
ATOM      6  C   UNL d   1      53.612  34.051  54.599  0.00  0.00     0.099 A 
ATOM      7  C   UNL d   1      54.550  33.100  55.105  0.00  0.00     0.021 A 
ATOM      8  C   UNL d   1      53.955  34.638  55.062  0.00  0.00     0.021 A 
ATOM      9  C   UNL d   1      54.895  33.689  55.571  0.00  0.00     0.002 A 
ATOM     10  C   UNL d   1      54.597  34.458  55.550  0.00  0.00     0.002 A 
ENDROOT
BRANCH   1  11
ATOM     11  C   UNL d   1      51.993  33.661  53.120  0.00  0.00     0.099 C 
BRANCH  11  12
ATOM     12  C   UNL d   1      51.179  33.746  53.230  0.00  0.00     0.282 C 
ATOM     13  O   UNL d   1      50.747  33.170  53.662  0.00  0.00    -0.265 OA
ATOM     14  N   UNL d   1      50.785  34.403  52.913  0.00  0.00    -0.206 NA
BRANCH  14  15
ATOM     15  C   UNL d   1      49.959  34.492  53.024  0.00  0.00     0.102 C 
BRANCH  15  16
ATOM     16  C   UNL d   1      49.532  35.157  53.241  0.00  0.00     0.021 C 
BRANCH  16  17
ATOM     17  C   UNL d   1      48.843  35.361  52.841  0.00  0.00     0.002 A 
ATOM     18  C   UNL d   1      48.280  35.826  53.225  0.00  0.00     0.000 A 
ATOM     19  C   UNL d   1      47.591  36.034  52.834  0.00  0.00     0.000 A 
ATOM     20  C   UNL d   1      47.461  35.780  52.057  0.00  0.00     0.000 A 
ATOM     21  C   UNL d   1      48.031  35.314  51.680  0.00  0.00     0.000 A 
ATOM     22  C   UNL d   1      48.718  35.109  52.076  0.00  0.00     0.000 A 
ENDBRANCH  16  17
ENDBRANCH  15  16
ENDBRANCH  14  15
ENDBRANCH  11  12
BRANCH  11  23
ATOM     23  C   UNL d   1      52.177  33.579  52.316  0.00  0.00     0.129 C 
ATOM     24  N   UNL d   1      52.225  34.096  51.674  0.00  0.00    -0.146 N 
ENDBRANCH  11  23
ENDBRANCH   1  11
BRANCH   2  25
ATOM     25  N   UNL d   1      52.475  32.414  53.154  0.00  0.00    -0.192 NA
BRANCH  25  26
ATOM     26  C   UNL d   1      52.759  31.721  52.809  0.00  0.00     0.057 C 
ATOM     27  C   UNL d   1      51.969  31.103  53.258  0.00  0.00     0.014 C 
ENDBRANCH  25  26
BRANCH  25  28
ATOM     28  C   UNL d   1      52.273  31.938  52.739  0.00  0.00     0.057 C 
ATOM     29  C   UNL d   1      52.501  30.941  52.662  0.00  0.00     0.014 C 
ENDBRANCH  25  28
ENDBRANCH   2  25
TORSDOF 9
ENDMDL
MODEL 4
REMARK VINA RESULT:      -7.4      2.084      5.297
REMARK  9 active torsions:
REMARK  status: ('A' for Active; 'I' for Inactive)
REMARK    1  A    between atoms: C_5  and  C_1 
REMARK    2  A    between atoms: N_11  and  C_2 
REMARK    3  A    between atoms: C_6  and  C_5 
REMARK    4  A    between atoms: C_7  and  C_5 
REMARK       I    between atoms: N_13  and  C_6 
REMARK    5  A    between atoms: C_16  and  N_11 
REMARK    6  A    between atoms: C_17  and  N_11 
REMARK    7  A    between atoms: C_14  and  N_13 
REMARK    8  A    between atoms: C_20  and  C_14 
REMARK    9  A    between atoms: C_15  and  C_20 
ROOT
ATOM      1  C   UNL d   1      53.255  33.078  53.260  0.00  0.00     0.117 A 
ATOM      2  C   UNL d   1      53.200  33.477  53.980  0.00  0.00     0.145 A 
ATOM      3  N   UNL d   1      52.674  33.182  52.686  0.00  0.00    -0.241 NA
ATOM      4  N   UNL d   1      52.564  33.980  54.126  0.00  0.00    -0.230 NA
ATOM      5  C   UNL d   1      51.984  34.084  53.551  0.00  0.00     0.100 A 
ATOM      6  C   UNL d   1      52.039  33.685  52.831  0.00  0.00     0.099 A 
ATOM      7  C   UNL d   1      51.348  34.587  53.697  0.00  0.00     0.021 A 
ATOM      8  C   UNL d   1      51.458  33.789  52.257  0.00  0.00     0.021 A 
ATOM      9  C   UNL d   1      50.764  34.692  53.121  0.00  0.00     0.002 A 
ATOM     10  C   UNL d   1      50.819  34.293  52.401  0.00  0.00     0.002 A 
ENDROOT
BRANCH   1  11
ATOM     11  C   UNL d   1      53.944  32.619  53.272  0.00  0.00     0.099 C 
BRANCH  11  12
ATOM     12  C   UNL d   1      54.067  31.803  53.317  0.00  0.00     0.282 C 
ATOM     13  O   UNL d   1      54.845  31.489  53.275  0.00  0.00    -0.265 OA
ATOM     14  N   UNL d   1      53.420  31.291  53.404  0.00  0.00    -0.206 NA
BRANCH  14  15
ATOM     15  C   UNL d   1      53.542  30.464  53.450  0.00  0.00     0.102 C 
BRANCH  15  16
ATOM     16  C   UNL d   1      53.009  29.869  53.634  0.00  0.00     0.021 C 
BRANCH  16  17
ATOM     17  C   UNL d   1      53.169  29.335  54.238  0.00  0.00     0.002 A 
ATOM     18  C   UNL d   1      53.565  28.634  54.060  0.00  0.00     0.000 A 
ATOM     19  C   UNL d   1      53.728  28.097  54.657  0.00  0.00     0.000 A 
ATOM     20  C   UNL d   1      53.496  28.257  55.435  0.00  0.00     0.000 A 
ATOM     21  C   UNL d   1      53.099  28.962  55.605  0.00  0.00     0.000 A 
ATOM     22  C   UNL d   1      52.939  29.496  55.004  0.00  0.00     0.000 A 
ENDBRANCH  16  17
ENDBRANCH  15  16
ENDBRANCH  14  15
ENDBRANCH  11  12
BRANCH  11  23
ATOM     23  C   UNL d   1      54.664  33.027  53.232  0.00  0.00     0.129 C 
ATOM     24  N   UNL d   1      55.271  33.082  52.676  0.00  0.00    -0.146 N 
ENDBRANCH  11  23
ENDBRANCH   1  11
BRANCH   2  25
ATOM     25  N   UNL d   1      53.854  33.265  54.440  0.00  0.00    -0.192 NA
BRANCH  25  26
ATOM     26  C   UNL d   1      53.853  33.297  55.263  0.00  0.00     0.057 C 
ATOM     27  C   UNL d   1      54.820  33.815  55.304  0.00  0.00     0.014 C 
ENDBRANCH  25  26
BRANCH  25  28
ATOM     28  C   UNL d   1      54.260  33.143  54.949  0.00  0.00     0.057 C 
ATOM     29  C   UNL d   1      54.451  33.649  55.821  0.00  0.00     0.014 C 
ENDBRANCH  25  28
ENDBRANCH   2  25
TORSDOF 9
ENDMDL
