MODEL 1
REMARK VINA RESULT:      -9.4      0.000      0.000
REMARK  4 active torsions:
REMARK  status: ('A' for Active; 'I' for Inactive)
REMARK    1  A    between atoms: N_10  and  C_3 
REMARK    2  A    between atoms: C_15  and  C_5 
REMARK    3  A    between atoms: C_14  and  C_9 
REMARK       I    between atoms: C_11  and  N_12 
REMARK    4  A    between atoms: C_13  and  C_11 
ROOT
ATOM      1  N   UNL d   1      51.850  34.239  53.530  0.00  0.00    -0.196 N 
ATOM      2  C   UNL d   1      52.560  33.900  53.812  0.00  0.00     0.167 A 
ATOM      3  C   UNL d   1      51.321  33.770  53.109  0.00  0.00     0.152 A 
ATOM      4  N   UNL d   1      52.233  35.482  54.099  0.00  0.00    -0.163 NA
ATOM      5  C   UNL d   1      53.095  34.349  54.231  0.00  0.00     0.055 A 
ATOM      6  N   UNL d   1      52.724  33.100  53.666  0.00  0.00    -0.231 NA
ATOM      7  C   UNL d   1      51.484  32.966  52.961  0.00  0.00     0.052 A 
ATOM      8  C   UNL d   1      52.932  35.148  54.377  0.00  0.00     0.104 A 
ATOM      9  C   UNL d   1      52.183  32.633  53.239  0.00  0.00     0.063 A 
ATOM     10  C   UNL d   1      53.463  35.613  54.798  0.00  0.00     0.023 C 
ENDROOT
BRANCH   3  11
ATOM     11  N   UNL d   1      50.589  34.120  52.818  0.00  0.00    -0.286 N 
ATOM     12  C   UNL d   1      49.954  34.480  53.184  0.00  0.00     0.101 A 
ATOM     13  C   UNL d   1      49.333  34.758  52.732  0.00  0.00     0.102 A 
ATOM     14  N   UNL d   1      49.349  34.674  51.921  0.00  0.00    -0.267 N 
ATOM     15  C   UNL d   1      48.733  34.950  51.480  0.00  0.00     0.288 C 
ATOM     16  C   UNL d   1      49.978  34.318  51.571  0.00  0.00     0.102 A 
ATOM     17  O   UNL d   1      48.744  34.870  50.672  0.00  0.00    -0.264 OA
ATOM     18  C   UNL d   1      50.605  34.037  52.020  0.00  0.00     0.101 A 
BRANCH  15  19
ATOM     19  C   UNL d   1      48.102  35.308  51.834  0.00  0.00     0.156 A 
ATOM     20  O   UNL d   1      47.362  34.986  51.763  0.00  0.00    -0.300 OA
ATOM     21  C   UNL d   1      46.723  35.339  52.115  0.00  0.00     0.123 A 
ATOM     22  C   UNL d   1      46.823  36.017  52.541  0.00  0.00     0.029 A 
ATOM     23  C   UNL d   1      48.199  35.985  52.260  0.00  0.00     0.032 A 
ENDBRANCH  15  19
ENDBRANCH   3  11
BRANCH   9  24
ATOM     24  C   UNL d   1      52.355  31.802  53.088  0.00  0.00     0.036 C 
ATOM     25  C   UNL d   1      52.520  30.982  52.944  0.00  0.00     0.006 C 
ATOM     26  C   UNL d   1      52.937  31.587  52.492  0.00  0.00     0.006 C 
ATOM     27  C   UNL d   1      51.941  31.201  53.538  0.00  0.00     0.006 C 
ENDBRANCH   9  24
BRANCH   5  28
ATOM     28  C   UNL d   1      53.799  34.013  54.510  0.00  0.00     0.004 A 
ATOM     29  C   UNL d   1      54.476  34.044  54.042  0.00  0.00     0.000 A 
ATOM     30  C   UNL d   1      55.186  33.705  54.324  0.00  0.00     0.000 A 
ATOM     31  C   UNL d   1      55.197  33.346  55.066  0.00  0.00     0.000 A 
ATOM     32  C   UNL d   1      54.510  33.321  55.528  0.00  0.00     0.000 A 
ATOM     33  C   UNL d   1      53.811  33.655  55.250  0.00  0.00     0.000 A 
ENDBRANCH   5  28
TORSDOF 4
ENDMDL
MODEL 2
REMARK VINA RESULT:      -6.9      0.937      2.323
REMARK  4 active torsions:
REMARK  status: ('A' for Active; 'I' for Inactive)
REMARK    1  A    between atoms: N_10  and  C_3 
REMARK    2  A    between atoms: C_15  and  C_5 
REMARK    3  A    between atoms: C_14  and  C_9 
REMARK       I    between atoms: C_11  and  N_12 
REMARK    4  A    between atoms: C_13  and  C_11 
ROOT
ATOM      1  N   UNL d   1      51.413  33.598  53.079  0.00  0.00    -0.196 N 
ATOM      2  C   UNL d   1      52.167  33.394  53.377  0.00  0.00     0.167 A 
ATOM      3  C   UNL d   1      51.156  34.377  53.134  0.00  0.00     0.152 A 
ATOM      4  N   UNL d   1      51.217  32.246  52.690  0.00  0.00    -0.163 NA
ATOM      5  C   UNL d   1      52.437  32.627  53.331  0.00  0.00     0.055 A 
ATOM      6  N   UNL d   1      52.645  33.976  53.724  0.00  0.00    -0.231 NA
ATOM      7  C   UNL d   1      51.635  34.963  53.482  0.00  0.00     0.052 A 
ATOM      8  C   UNL d   1      51.959  32.046  52.984  0.00  0.00     0.104 A 
ATOM      9  C   UNL d   1      52.377  34.763  53.776  0.00  0.00     0.063 A 
ATOM     10  C   UNL d   1      52.220  31.268  52.931  0.00  0.00     0.023 C 
ENDROOT
BRANCH   3  11
ATOM     11  N   UNL d   1      50.379  34.586  52.826  0.00  0.00    -0.286 N 
ATOM     12  C   UNL d   1      49.711  34.916  53.162  0.00  0.00     0.101 A 
ATOM     13  C   UNL d   1      49.049  35.045  52.702  0.00  0.00     0.102 A 
ATOM     14  N   UNL d   1      49.058  34.845  51.911  0.00  0.00    -0.267 N 
ATOM     15  C   UNL d   1      48.402  34.974  51.460  0.00  0.00     0.288 C 
ATOM     16  C   UNL d   1      49.720  34.521  51.590  0.00  0.00     0.102 A 
ATOM     17  O   UNL d   1      48.405  34.776  50.672  0.00  0.00    -0.264 OA
ATOM     18  C   UNL d   1      50.388  34.389  52.048  0.00  0.00     0.101 A 
BRANCH  15  19
ATOM     19  C   UNL d   1      47.738  35.300  51.785  0.00  0.00     0.156 A 
ATOM     20  O   UNL d   1      47.035  34.898  51.757  0.00  0.00    -0.300 OA
ATOM     21  C   UNL d   1      46.364  35.218  52.080  0.00  0.00     0.123 A 
ATOM     22  C   UNL d   1      46.395  35.943  52.434  0.00  0.00     0.029 A 
ATOM     23  C   UNL d   1      47.766  36.024  52.138  0.00  0.00     0.032 A 
ENDBRANCH  15  19
ENDBRANCH   3  11
BRANCH   9  24
ATOM     24  C   UNL d   1      52.876  35.365  54.137  0.00  0.00     0.036 C 
ATOM     25  C   UNL d   1      53.365  35.959  54.498  0.00  0.00     0.006 C 
ATOM     26  C   UNL d   1      53.451  35.790  53.656  0.00  0.00     0.006 C 
ATOM     27  C   UNL d   1      52.791  35.533  54.973  0.00  0.00     0.006 C 
ENDBRANCH   9  24
BRANCH   5  28
ATOM     28  C   UNL d   1      53.184  32.426  53.627  0.00  0.00     0.004 A 
ATOM     29  C   UNL d   1      53.258  32.192  54.414  0.00  0.00     0.000 A 
ATOM     30  C   UNL d   1      54.012  31.989  54.713  0.00  0.00     0.000 A 
ATOM     31  C   UNL d   1      54.668  32.026  54.215  0.00  0.00     0.000 A 
ATOM     32  C   UNL d   1      54.581  32.262  53.426  0.00  0.00     0.000 A 
ATOM     33  C   UNL d   1      53.839  32.462  53.132  0.00  0.00     0.000 A 
ENDBRANCH   5  28
TORSDOF 4
ENDMDL
