MODEL 1
REMARK VINA RESULT:      -8.9      0.000      0.000
REMARK  0 active torsions:
REMARK  status: ('A' for Active; 'I' for Inactive)
ROOT
ATOM      1  C   UNL d   1     -48.153  12.534  23.141  0.00  0.00     0.138 A 
ATOM      2  C   UNL d   1     -48.389  13.320  23.057  0.00  0.00     0.102 A 
ATOM      3  N   UNL d   1     -47.359  12.328  23.042  0.00  0.00    -0.239 NA
ATOM      4  C   UNL d   1     -48.704  11.956  23.322  0.00  0.00     0.214 A 
ATOM      5  N   UNL d   1     -47.829  13.900  22.874  0.00  0.00    -0.242 NA
ATOM      6  C   UNL d   1     -49.733  12.948  23.337  0.00  0.00     0.022 A 
ATOM      7  C   UNL d   1     -49.498  12.162  23.421  0.00  0.00     0.042 A 
ATOM      8  C   UNL d   1     -46.795  12.910  22.858  0.00  0.00     0.099 A 
ATOM      9  C   UNL d   1     -47.030  13.696  22.774  0.00  0.00     0.099 A 
ATOM     10  O   UNL d   1     -48.469  11.169  23.406  0.00  0.00    -0.285 OA
ATOM     11  C   UNL d   1     -50.519  13.156  23.434  0.00  0.00     0.002 A 
ATOM     12  C   UNL d   1     -50.048  11.583  23.602  0.00  0.00     0.003 A 
ATOM     13  C   UNL d   1     -46.480  14.258  22.595  0.00  0.00     0.021 A 
ATOM     14  C   UNL d   1     -46.013  12.695  22.762  0.00  0.00     0.021 A 
ATOM     15  C   UNL d   1     -51.064  12.580  23.614  0.00  0.00     0.000 A 
ATOM     16  C   UNL d   1     -50.828  11.794  23.698  0.00  0.00     0.000 A 
ATOM     17  C   UNL d   1     -45.665  14.074  22.490  0.00  0.00     0.002 A 
ATOM     18  C   UNL d   1     -45.430  13.288  22.574  0.00  0.00     0.002 A 
ENDROOT
TORSDOF 0
ENDMDL
MODEL 2
REMARK VINA RESULT:      -8.8      1.563      3.427
REMARK  0 active torsions:
REMARK  status: ('A' for Active; 'I' for Inactive)
ROOT
ATOM      1  C   UNL d   1     -48.014  13.561  23.136  0.00  0.00     0.138 A 
ATOM      2  C   UNL d   1     -48.591  13.001  23.323  0.00  0.00     0.102 A 
ATOM      3  N   UNL d   1     -48.236  14.334  22.948  0.00  0.00    -0.239 NA
ATOM      4  C   UNL d   1     -47.222  13.353  23.136  0.00  0.00     0.214 A 
ATOM      5  N   UNL d   1     -49.389  13.215  23.321  0.00  0.00    -0.242 NA
ATOM      6  C   UNL d   1     -47.578  12.020  23.511  0.00  0.00     0.022 A 
ATOM      7  C   UNL d   1     -47.001  12.579  23.324  0.00  0.00     0.042 A 
ATOM      8  C   UNL d   1     -49.038  14.552  22.946  0.00  0.00     0.099 A 
ATOM      9  C   UNL d   1     -49.615  13.993  23.132  0.00  0.00     0.099 A 
ATOM     10  O   UNL d   1     -46.646  13.913  22.949  0.00  0.00    -0.285 OA
ATOM     11  C   UNL d   1     -47.363  11.253  23.698  0.00  0.00     0.002 A 
ATOM     12  C   UNL d   1     -46.209  12.372  23.325  0.00  0.00     0.003 A 
ATOM     13  C   UNL d   1     -50.392  14.207  23.129  0.00  0.00     0.021 A 
ATOM     14  C   UNL d   1     -49.245  15.319  22.758  0.00  0.00     0.021 A 
ATOM     15  C   UNL d   1     -46.576  11.049  23.698  0.00  0.00     0.000 A 
ATOM     16  C   UNL d   1     -45.999  11.608  23.511  0.00  0.00     0.000 A 
ATOM     17  C   UNL d   1     -50.643  14.988  22.941  0.00  0.00     0.002 A 
ATOM     18  C   UNL d   1     -50.066  15.548  22.754  0.00  0.00     0.002 A 
ENDROOT
TORSDOF 0
ENDMDL
MODEL 3
REMARK VINA RESULT:      -8.7      0.992      3.952
REMARK  0 active torsions:
REMARK  status: ('A' for Active; 'I' for Inactive)
ROOT
ATOM      1  C   UNL d   1     -48.335  13.359  23.098  0.00  0.00     0.138 A 
ATOM      2  C   UNL d   1     -48.115  12.565  23.132  0.00  0.00     0.102 A 
ATOM      3  N   UNL d   1     -49.124  13.575  23.222  0.00  0.00    -0.239 NA
ATOM      4  C   UNL d   1     -47.776  13.937  22.942  0.00  0.00     0.214 A 
ATOM      5  N   UNL d   1     -48.683  11.986  23.289  0.00  0.00    -0.242 NA
ATOM      6  C   UNL d   1     -46.768  12.927  22.852  0.00  0.00     0.022 A 
ATOM      7  C   UNL d   1     -46.988  13.721  22.818  0.00  0.00     0.042 A 
ATOM      8  C   UNL d   1     -49.697  12.993  23.381  0.00  0.00     0.099 A 
ATOM      9  C   UNL d   1     -49.477  12.199  23.414  0.00  0.00     0.099 A 
ATOM     10  O   UNL d   1     -47.997  14.731  22.908  0.00  0.00    -0.285 OA
ATOM     11  C   UNL d   1     -45.988  12.710  22.730  0.00  0.00     0.002 A 
ATOM     12  C   UNL d   1     -46.429  14.298  22.662  0.00  0.00     0.003 A 
ATOM     13  C   UNL d   1     -50.035  11.639  23.568  0.00  0.00     0.021 A 
ATOM     14  C   UNL d   1     -50.473  13.218  23.501  0.00  0.00     0.021 A 
ATOM     15  C   UNL d   1     -45.434  13.285  22.575  0.00  0.00     0.000 A 
ATOM     16  C   UNL d   1     -45.655  14.079  22.542  0.00  0.00     0.000 A 
ATOM     17  C   UNL d   1     -50.844  11.832  23.698  0.00  0.00     0.002 A 
ATOM     18  C   UNL d   1     -51.064  12.626  23.664  0.00  0.00     0.002 A 
ENDROOT
TORSDOF 0
ENDMDL
MODEL 4
REMARK VINA RESULT:      -8.4      1.434      2.112
REMARK  0 active torsions:
REMARK  status: ('A' for Active; 'I' for Inactive)
ROOT
ATOM      1  C   UNL d   1     -48.600  13.083  23.302  0.00  0.00     0.138 A 
ATOM      2  C   UNL d   1     -48.019  13.634  23.103  0.00  0.00     0.102 A 
ATOM      3  N   UNL d   1     -48.385  12.310  23.499  0.00  0.00    -0.239 NA
ATOM      4  C   UNL d   1     -49.390  13.298  23.305  0.00  0.00     0.214 A 
ATOM      5  N   UNL d   1     -47.224  13.412  23.102  0.00  0.00    -0.242 NA
ATOM      6  C   UNL d   1     -49.024  14.623  22.909  0.00  0.00     0.022 A 
ATOM      7  C   UNL d   1     -49.605  14.071  23.108  0.00  0.00     0.042 A 
ATOM      8  C   UNL d   1     -47.584  12.084  23.498  0.00  0.00     0.099 A 
ATOM      9  C   UNL d   1     -47.004  12.636  23.300  0.00  0.00     0.099 A 
ATOM     10  O   UNL d   1     -49.970  12.747  23.504  0.00  0.00    -0.285 OA
ATOM     11  C   UNL d   1     -49.234  15.389  22.714  0.00  0.00     0.002 A 
ATOM     12  C   UNL d   1     -50.395  14.286  23.111  0.00  0.00     0.003 A 
ATOM     13  C   UNL d   1     -46.229  12.414  23.300  0.00  0.00     0.021 A 
ATOM     14  C   UNL d   1     -47.383  11.318  23.695  0.00  0.00     0.021 A 
ATOM     15  C   UNL d   1     -50.019  15.601  22.717  0.00  0.00     0.000 A 
ATOM     16  C   UNL d   1     -50.600  15.049  22.916  0.00  0.00     0.000 A 
ATOM     17  C   UNL d   1     -45.984  11.633  23.497  0.00  0.00     0.002 A 
ATOM     18  C   UNL d   1     -46.564  11.081  23.695  0.00  0.00     0.002 A 
ENDROOT
TORSDOF 0
ENDMDL
MODEL 5
REMARK VINA RESULT:      -7.7      1.600      2.353
REMARK  0 active torsions:
REMARK  status: ('A' for Active; 'I' for Inactive)
ROOT
ATOM      1  C   UNL d   1     -48.153  13.663  23.081  0.00  0.00     0.138 A 
ATOM      2  C   UNL d   1     -48.681  13.101  23.375  0.00  0.00     0.102 A 
ATOM      3  N   UNL d   1     -47.354  13.473  22.994  0.00  0.00    -0.239 NA
ATOM      4  C   UNL d   1     -48.418  14.410  22.873  0.00  0.00     0.214 A 
ATOM      5  N   UNL d   1     -48.409  12.349  23.583  0.00  0.00    -0.242 NA
ATOM      6  C   UNL d   1     -49.746  14.038  23.255  0.00  0.00     0.022 A 
ATOM      7  C   UNL d   1     -49.218  14.599  22.960  0.00  0.00     0.042 A 
ATOM      8  C   UNL d   1     -47.077  12.717  23.202  0.00  0.00     0.099 A 
ATOM      9  C   UNL d   1     -47.605  12.155  23.497  0.00  0.00     0.099 A 
ATOM     10  O   UNL d   1     -47.891  14.971  22.579  0.00  0.00    -0.285 OA
ATOM     11  C   UNL d   1     -50.538  14.222  23.342  0.00  0.00     0.002 A 
ATOM     12  C   UNL d   1     -49.483  15.346  22.753  0.00  0.00     0.003 A 
ATOM     13  C   UNL d   1     -47.334  11.423  23.698  0.00  0.00     0.021 A 
ATOM     14  C   UNL d   1     -46.286  12.540  23.113  0.00  0.00     0.021 A 
ATOM     15  C   UNL d   1     -50.799  14.964  23.135  0.00  0.00     0.000 A 
ATOM     16  C   UNL d   1     -50.272  15.526  22.841  0.00  0.00     0.000 A 
ATOM     17  C   UNL d   1     -46.524  11.205  23.619  0.00  0.00     0.002 A 
ATOM     18  C   UNL d   1     -45.997  11.767  23.325  0.00  0.00     0.002 A 
ENDROOT
TORSDOF 0
ENDMDL
MODEL 6
REMARK VINA RESULT:      -7.1      1.276      1.872
REMARK  0 active torsions:
REMARK  status: ('A' for Active; 'I' for Inactive)
ROOT
ATOM      1  C   UNL d   1     -48.135  13.628  22.611  0.00  0.00     0.138 A 
ATOM      2  C   UNL d   1     -48.295  12.845  22.817  0.00  0.00     0.102 A 
ATOM      3  N   UNL d   1     -47.354  13.899  22.594  0.00  0.00    -0.239 NA
ATOM      4  C   UNL d   1     -48.746  14.139  22.421  0.00  0.00     0.214 A 
ATOM      5  N   UNL d   1     -47.675  12.334  23.008  0.00  0.00    -0.242 NA
ATOM      6  C   UNL d   1     -49.687  13.085  22.644  0.00  0.00     0.022 A 
ATOM      7  C   UNL d   1     -49.527  13.868  22.437  0.00  0.00     0.042 A 
ATOM      8  C   UNL d   1     -46.728  13.385  22.786  0.00  0.00     0.099 A 
ATOM      9  C   UNL d   1     -46.889  12.603  22.992  0.00  0.00     0.099 A 
ATOM     10  O   UNL d   1     -48.585  14.921  22.215  0.00  0.00    -0.285 OA
ATOM     11  C   UNL d   1     -50.459  12.814  22.661  0.00  0.00     0.002 A 
ATOM     12  C   UNL d   1     -50.138  14.378  22.248  0.00  0.00     0.003 A 
ATOM     13  C   UNL d   1     -46.280  12.108  23.177  0.00  0.00     0.021 A 
ATOM     14  C   UNL d   1     -45.961  13.664  22.766  0.00  0.00     0.021 A 
ATOM     15  C   UNL d   1     -51.064  13.323  22.473  0.00  0.00     0.000 A 
ATOM     16  C   UNL d   1     -50.904  14.105  22.266  0.00  0.00     0.000 A 
ATOM     17  C   UNL d   1     -45.476  12.360  23.168  0.00  0.00     0.002 A 
ATOM     18  C   UNL d   1     -45.316  13.142  22.962  0.00  0.00     0.002 A 
ENDROOT
TORSDOF 0
ENDMDL
MODEL 7
REMARK VINA RESULT:      -7.1      1.846      2.932
REMARK  0 active torsions:
REMARK  status: ('A' for Active; 'I' for Inactive)
ROOT
ATOM      1  C   UNL d   1     -46.168  12.437  23.033  0.00  0.00     0.138 A 
ATOM      2  C   UNL d   1     -46.637  11.848  23.371  0.00  0.00     0.102 A 
ATOM      3  N   UNL d   1     -45.360  12.307  22.920  0.00  0.00    -0.239 NA
ATOM      4  C   UNL d   1     -46.500  13.151  22.810  0.00  0.00     0.214 A 
ATOM      5  N   UNL d   1     -46.297  11.129  23.595  0.00  0.00    -0.242 NA
ATOM      6  C   UNL d   1     -47.777  12.692  23.262  0.00  0.00     0.022 A 
ATOM      7  C   UNL d   1     -47.308  13.281  22.924  0.00  0.00     0.042 A 
ATOM      8  C   UNL d   1     -45.016  11.584  23.144  0.00  0.00     0.099 A 
ATOM      9  C   UNL d   1     -45.485  10.994  23.482  0.00  0.00     0.099 A 
ATOM     10  O   UNL d   1     -46.031  13.740  22.473  0.00  0.00    -0.285 OA
ATOM     11  C   UNL d   1     -48.578  12.818  23.376  0.00  0.00     0.002 A 
ATOM     12  C   UNL d   1     -47.640  13.996  22.701  0.00  0.00     0.003 A 
ATOM     13  C   UNL d   1     -45.149  10.295  23.698  0.00  0.00     0.021 A 
ATOM     14  C   UNL d   1     -44.217  11.466  23.027  0.00  0.00     0.021 A 
ATOM     15  C   UNL d   1     -48.905  13.528  23.153  0.00  0.00     0.000 A 
ATOM     16  C   UNL d   1     -48.436  14.117  22.816  0.00  0.00     0.000 A 
ATOM     17  C   UNL d   1     -44.328  10.138  23.593  0.00  0.00     0.002 A 
ATOM     18  C   UNL d   1     -43.859  10.727  23.255  0.00  0.00     0.002 A 
ENDROOT
TORSDOF 0
ENDMDL
MODEL 8
REMARK VINA RESULT:      -6.8      1.813      3.785
REMARK  0 active torsions:
REMARK  status: ('A' for Active; 'I' for Inactive)
ROOT
ATOM      1  C   UNL d   1     -46.291  12.065  23.242  0.00  0.00     0.138 A 
ATOM      2  C   UNL d   1     -45.648  12.528  23.011  0.00  0.00     0.102 A 
ATOM      3  N   UNL d   1     -47.051  12.390  23.250  0.00  0.00    -0.239 NA
ATOM      4  C   UNL d   1     -46.180  11.285  23.464  0.00  0.00     0.214 A 
ATOM      5  N   UNL d   1     -45.765  13.315  22.788  0.00  0.00    -0.242 NA
ATOM      6  C   UNL d   1     -44.777  11.423  23.224  0.00  0.00     0.022 A 
ATOM      7  C   UNL d   1     -45.420  10.961  23.455  0.00  0.00     0.042 A 
ATOM      8  C   UNL d   1     -47.172  13.182  23.026  0.00  0.00     0.099 A 
ATOM      9  C   UNL d   1     -46.529  13.644  22.795  0.00  0.00     0.099 A 
ATOM     10  O   UNL d   1     -46.823  10.822  23.695  0.00  0.00    -0.285 OA
ATOM     11  C   UNL d   1     -44.023  11.105  23.215  0.00  0.00     0.002 A 
ATOM     12  C   UNL d   1     -45.309  10.180  23.677  0.00  0.00     0.003 A 
ATOM     13  C   UNL d   1     -46.648  14.411  22.579  0.00  0.00     0.021 A 
ATOM     14  C   UNL d   1     -47.927  13.491  23.038  0.00  0.00     0.021 A 
ATOM     15  C   UNL d   1     -43.915  10.330  23.436  0.00  0.00     0.000 A 
ATOM     16  C   UNL d   1     -44.557   9.868  23.667  0.00  0.00     0.000 A 
ATOM     17  C   UNL d   1     -47.413  14.765  22.578  0.00  0.00     0.002 A 
ATOM     18  C   UNL d   1     -48.056  14.302  22.809  0.00  0.00     0.002 A 
ENDROOT
TORSDOF 0
ENDMDL
MODEL 9
REMARK VINA RESULT:      -6.8      8.237     10.474
REMARK  0 active torsions:
REMARK  status: ('A' for Active; 'I' for Inactive)
ROOT
ATOM      1  C   UNL d   1     -39.744  14.417  18.317  0.00  0.00     0.138 A 
ATOM      2  C   UNL d   1     -39.710  15.233  18.204  0.00  0.00     0.102 A 
ATOM      3  N   UNL d   1     -40.121  14.107  18.984  0.00  0.00    -0.239 NA
ATOM      4  C   UNL d   1     -39.405  13.910  17.770  0.00  0.00     0.214 A 
ATOM      5  N   UNL d   1     -40.054  15.740  18.759  0.00  0.00    -0.242 NA
ATOM      6  C   UNL d   1     -38.994  15.037  16.990  0.00  0.00     0.022 A 
ATOM      7  C   UNL d   1     -39.028  14.220  17.103  0.00  0.00     0.042 A 
ATOM      8  C   UNL d   1     -40.467  14.615  19.544  0.00  0.00     0.099 A 
ATOM      9  C   UNL d   1     -40.434  15.432  19.431  0.00  0.00     0.099 A 
ATOM     10  O   UNL d   1     -39.439  13.094  17.883  0.00  0.00    -0.285 OA
ATOM     11  C   UNL d   1     -38.622  15.347  16.331  0.00  0.00     0.002 A 
ATOM     12  C   UNL d   1     -38.689  13.713  16.556  0.00  0.00     0.003 A 
ATOM     13  C   UNL d   1     -40.770  15.922  19.975  0.00  0.00     0.021 A 
ATOM     14  C   UNL d   1     -40.837  14.299  20.199  0.00  0.00     0.021 A 
ATOM     15  C   UNL d   1     -38.286  14.842  15.789  0.00  0.00     0.000 A 
ATOM     16  C   UNL d   1     -38.319  14.025  15.902  0.00  0.00     0.000 A 
ATOM     17  C   UNL d   1     -41.160  15.632  20.663  0.00  0.00     0.002 A 
ATOM     18  C   UNL d   1     -41.194  14.815  20.775  0.00  0.00     0.002 A 
ENDROOT
TORSDOF 0
ENDMDL
