MODEL 1
REMARK VINA RESULT:       1.3      0.000      0.000
REMARK  3 active torsions:
REMARK  status: ('A' for Active; 'I' for Inactive)
REMARK    1  A    between atoms: C_7  and  C_1 
REMARK    2  A    between atoms: C_10  and  C_7 
REMARK    3  A    between atoms: N_8  and  C_9 
ROOT
ATOM      1  C   UNL d   1     -41.859-122.554 -52.037  0.00  0.00     0.129 A 
ATOM      2  C   UNL d   1     -42.070-122.605 -51.243  0.00  0.00     0.024 A 
ATOM      3  C   UNL d   1     -41.542-121.858 -52.333  0.00  0.00     0.050 A 
ATOM      4  C   UNL d   1     -41.431-121.205 -51.838  0.00  0.00     0.121 A 
ATOM      5  C   UNL d   1     -41.640-121.250 -51.042  0.00  0.00     0.119 A 
ATOM      6  C   UNL d   1     -41.963-121.956 -50.742  0.00  0.00     0.028 A 
ATOM      7  O   UNL d   1     -41.130-120.448 -51.975  0.00  0.00    -0.299 OA
ATOM      8  O   UNL d   1     -41.472-120.531 -50.688  0.00  0.00    -0.300 OA
ATOM      9  C   UNL d   1     -41.155-120.032 -51.264  0.00  0.00     0.304 A 
ENDROOT
BRANCH   2  10
ATOM     10  C   UNL d   1     -42.387-123.302 -50.953  0.00  0.00     0.011 C 
BRANCH  10  11
ATOM     11  C   UNL d   1     -42.518-123.384 -50.134  0.00  0.00     0.116 A 
ATOM     12  C   UNL d   1     -43.261-123.207 -49.815  0.00  0.00     0.288 A 
ATOM     13  N   UNL d   1     -43.392-123.286 -49.011  0.00  0.00    -0.152 NA
ATOM     14  O   UNL d   1     -43.872-122.948 -50.315  0.00  0.00    -0.265 OA
ATOM     15  C   UNL d   1     -42.786-123.542 -48.523  0.00  0.00     0.374 A 
ATOM     16  N   UNL d   1     -42.043-123.720 -48.842  0.00  0.00    -0.152 NA
ATOM     17  O   UNL d   1     -42.913-123.625 -47.707  0.00  0.00    -0.242 OA
ATOM     18  C   UNL d   1     -41.912-123.640 -49.647  0.00  0.00     0.288 A 
ATOM     19  O   UNL d   1     -41.172-123.817 -49.965  0.00  0.00    -0.265 OA
ENDBRANCH  10  11
ENDBRANCH   2  10
BRANCH   1  20
ATOM     20  N   UNL d   1     -41.967-123.198 -52.531  0.00  0.00    -0.114 N 
ATOM     21  O   UNL d   1     -42.646-123.252 -53.000  0.00  0.00    -0.532 OA
ATOM     22  O   UNL d   1     -41.403-123.792 -52.562  0.00  0.00    -0.532 OA
ENDBRANCH   1  20
TORSDOF 3
ENDMDL
MODEL 2
REMARK VINA RESULT:       1.3      1.182      3.589
REMARK  3 active torsions:
REMARK  status: ('A' for Active; 'I' for Inactive)
REMARK    1  A    between atoms: C_7  and  C_1 
REMARK    2  A    between atoms: C_10  and  C_7 
REMARK    3  A    between atoms: N_8  and  C_9 
ROOT
ATOM      1  C   UNL d   1     -42.129-122.660 -49.925  0.00  0.00     0.129 A 
ATOM      2  C   UNL d   1     -42.068-122.485 -50.727  0.00  0.00     0.024 A 
ATOM      3  C   UNL d   1     -42.853-122.594 -49.546  0.00  0.00     0.050 A 
ATOM      4  C   UNL d   1     -43.524-122.352 -49.963  0.00  0.00     0.121 A 
ATOM      5  C   UNL d   1     -43.469-122.175 -50.766  0.00  0.00     0.119 A 
ATOM      6  C   UNL d   1     -42.734-122.242 -51.152  0.00  0.00     0.028 A 
ATOM      7  O   UNL d   1     -44.309-122.237 -49.735  0.00  0.00    -0.299 OA
ATOM      8  O   UNL d   1     -44.210-121.953 -51.035  0.00  0.00    -0.300 OA
ATOM      9  C   UNL d   1     -44.733-121.990 -50.398  0.00  0.00     0.304 A 
ENDROOT
BRANCH   2  10
ATOM     10  C   UNL d   1     -41.342-122.552 -51.103  0.00  0.00     0.011 C 
BRANCH  10  11
ATOM     11  C   UNL d   1     -41.290-122.420 -51.923  0.00  0.00     0.116 A 
ATOM     12  C   UNL d   1     -41.191-121.650 -52.211  0.00  0.00     0.288 A 
ATOM     13  N   UNL d   1     -41.140-121.517 -53.018  0.00  0.00    -0.152 NA
ATOM     14  O   UNL d   1     -41.144-121.014 -51.679  0.00  0.00    -0.265 OA
ATOM     15  C   UNL d   1     -41.187-122.148 -53.538  0.00  0.00     0.374 A 
ATOM     16  N   UNL d   1     -41.285-122.918 -53.250  0.00  0.00    -0.152 NA
ATOM     17  O   UNL d   1     -41.135-122.019 -54.356  0.00  0.00    -0.242 OA
ATOM     18  C   UNL d   1     -41.337-123.051 -52.443  0.00  0.00     0.288 A 
ATOM     19  O   UNL d   1     -41.435-123.817 -52.156  0.00  0.00    -0.265 OA
ENDBRANCH  10  11
ENDBRANCH   2  10
BRANCH   1  20
ATOM     20  N   UNL d   1     -41.466-122.900 -49.508  0.00  0.00    -0.114 N 
ATOM     21  O   UNL d   1     -41.142-123.648 -49.640  0.00  0.00    -0.532 OA
ATOM     22  O   UNL d   1     -41.123-122.398 -48.957  0.00  0.00    -0.532 OA
ENDBRANCH   1  20
TORSDOF 3
ENDMDL
MODEL 3
REMARK VINA RESULT:       4.1      1.221      3.454
REMARK  3 active torsions:
REMARK  status: ('A' for Active; 'I' for Inactive)
REMARK    1  A    between atoms: C_7  and  C_1 
REMARK    2  A    between atoms: C_10  and  C_7 
REMARK    3  A    between atoms: N_8  and  C_9 
ROOT
ATOM      1  C   UNL d   1     -43.394-122.984 -49.155  0.00  0.00     0.129 A 
ATOM      2  C   UNL d   1     -42.787-122.941 -49.709  0.00  0.00     0.024 A 
ATOM      3  C   UNL d   1     -43.224-122.923 -48.355  0.00  0.00     0.050 A 
ATOM      4  C   UNL d   1     -42.444-122.820 -48.100  0.00  0.00     0.121 A 
ATOM      5  C   UNL d   1     -41.832-122.776 -48.649  0.00  0.00     0.119 A 
ATOM      6  C   UNL d   1     -42.005-122.838 -49.462  0.00  0.00     0.028 A 
ATOM      7  O   UNL d   1     -42.111-122.743 -47.348  0.00  0.00    -0.299 OA
ATOM      8  O   UNL d   1     -41.127-122.674 -48.247  0.00  0.00    -0.300 OA
ATOM      9  C   UNL d   1     -41.297-122.653 -47.439  0.00  0.00     0.304 A 
ENDROOT
BRANCH   2  10
ATOM     10  C   UNL d   1     -42.962-123.002 -50.508  0.00  0.00     0.011 C 
BRANCH  10  11
ATOM     11  C   UNL d   1     -42.498-122.590 -51.063  0.00  0.00     0.116 A 
ATOM     12  C   UNL d   1     -42.640-121.787 -51.205  0.00  0.00     0.288 A 
ATOM     13  N   UNL d   1     -42.185-121.379 -51.749  0.00  0.00    -0.152 NA
ATOM     14  O   UNL d   1     -43.246-121.397 -50.791  0.00  0.00    -0.265 OA
ATOM     15  C   UNL d   1     -41.588-121.768 -52.154  0.00  0.00     0.374 A 
ATOM     16  N   UNL d   1     -41.446-122.571 -52.012  0.00  0.00    -0.152 NA
ATOM     17  O   UNL d   1     -41.123-121.360 -52.707  0.00  0.00    -0.242 OA
ATOM     18  C   UNL d   1     -41.901-122.979 -51.466  0.00  0.00     0.288 A 
ATOM     19  O   UNL d   1     -41.760-123.779 -51.325  0.00  0.00    -0.265 OA
ENDBRANCH  10  11
ENDBRANCH   2  10
BRANCH   1  20
ATOM     20  N   UNL d   1     -44.168-123.086 -49.404  0.00  0.00    -0.114 N 
ATOM     21  O   UNL d   1     -44.699-122.453 -49.378  0.00  0.00    -0.532 OA
ATOM     22  O   UNL d   1     -44.418-123.817 -49.679  0.00  0.00    -0.532 OA
ENDBRANCH   1  20
TORSDOF 3
ENDMDL
