MODEL 1
REMARK VINA RESULT:      46.2      0.000      0.000
REMARK  3 active torsions:
REMARK  status: ('A' for Active; 'I' for Inactive)
REMARK    1  A    between atoms: C_6  and  C_1 
REMARK    2  A    between atoms: C_10  and  C_3 
REMARK    3  A    between atoms: C_8  and  N_4 
REMARK       I    between atoms: N_7  and  C_6 
ROOT
ATOM      1  C   UNL d   1      14.159  13.564  -2.802  0.00  0.00     0.095 A 
ATOM      2  N   UNL d   1      13.687  14.452  -3.815  0.00  0.00    -0.165 NA
ATOM      3  C   UNL d   1      13.764  13.693  -3.514  0.00  0.00     0.107 A 
ATOM      4  N   UNL d   1      14.402  14.974  -2.695  0.00  0.00    -0.228 N 
ATOM      5  C   UNL d   1      14.475  14.208  -2.399  0.00  0.00     0.107 A 
ENDROOT
BRANCH   1   6
ATOM      6  C   UNL d   1      14.232  12.799  -2.506  0.00  0.00     0.268 C 
ATOM      7  N   UNL d   1      14.398  12.683  -1.672  0.00  0.00    -0.272 N 
ATOM      8  C   UNL d   1      14.475  11.894  -1.356  0.00  0.00     0.083 A 
ATOM      9  C   UNL d   1      14.486  13.358  -1.156  0.00  0.00     0.083 A 
ATOM     10  C   UNL d   1      14.639  11.779  -0.527  0.00  0.00     0.019 A 
ATOM     11  C   UNL d   1      14.726  12.455  -0.018  0.00  0.00     0.003 A 
ATOM     12  C   UNL d   1      14.651  13.243  -0.327  0.00  0.00     0.019 A 
ATOM     13  O   UNL d   1      14.148  12.155  -2.995  0.00  0.00    -0.267 OA
ENDBRANCH   1   6
BRANCH   3  14
ATOM     14  C   UNL d   1      13.442  13.052  -3.927  0.00  0.00     0.023 A 
ATOM     15  C   UNL d   1      13.089  12.435  -3.508  0.00  0.00     0.022 A 
ATOM     16  C   UNL d   1      12.770  11.799  -3.924  0.00  0.00     0.099 A 
ATOM     17  N   UNL d   1      12.804  11.780  -4.749  0.00  0.00    -0.242 NA
ATOM     18  C   UNL d   1      13.159  12.401  -5.159  0.00  0.00     0.099 A 
ATOM     19  C   UNL d   1      13.478  13.037  -4.746  0.00  0.00     0.022 A 
ENDBRANCH   3  14
BRANCH   4  20
ATOM     20  C   UNL d   1      14.640  15.720  -2.450  0.00  0.00     0.083 A 
ATOM     21  C   UNL d   1      14.693  15.891  -1.652  0.00  0.00     0.019 A 
ATOM     22  C   UNL d   1      14.931  16.638  -1.408  0.00  0.00     0.002 A 
ATOM     23  C   UNL d   1      15.118  17.219  -1.966  0.00  0.00     0.000 A 
ATOM     24  C   UNL d   1      15.065  17.044  -2.775  0.00  0.00     0.002 A 
ATOM     25  C   UNL d   1      14.825  16.291  -3.019  0.00  0.00     0.019 A 
ENDBRANCH   4  20
TORSDOF 3
ENDMDL
