MODEL 1
REMARK VINA RESULT:      62.8      0.000      0.000
REMARK  3 active torsions:
REMARK  status: ('A' for Active; 'I' for Inactive)
REMARK    1  A    between atoms: N_2  and  S_1 
REMARK    2  A    between atoms: C_3  and  S_1 
REMARK    3  A    between atoms: C_5  and  N_4 
ROOT
ATOM      1  N   UNL d   1      14.310  14.742  -2.649  0.00  0.00    -0.226 N 
ATOM      2  N   UNL d   1      13.693  13.627  -3.696  0.00  0.00    -0.301 N 
ATOM      3  C   UNL d   1      14.473  13.934  -2.534  0.00  0.00     0.111 A 
ATOM      4  C   UNL d   1      13.845  14.982  -3.281  0.00  0.00     0.111 A 
ATOM      5  C   UNL d   1      13.536  14.424  -3.805  0.00  0.00     0.100 A 
ATOM      6  C   UNL d   1      14.164  13.376  -3.058  0.00  0.00     0.100 A 
ENDROOT
BRANCH   1   7
ATOM      7  S   UNL d   1      14.618  15.300  -2.125  0.00  0.00     0.271 S 
ATOM      8  O   UNL d   1      14.434  14.807  -1.491  0.00  0.00    -0.200 OA
ATOM      9  O   UNL d   1      14.804  15.794  -2.760  0.00  0.00    -0.200 OA
BRANCH   7  10
ATOM     10  C   UNL d   1      14.927  15.858  -1.601  0.00  0.00     0.104 A 
ATOM     11  C   UNL d   1      14.988  16.644  -1.826  0.00  0.00     0.015 A 
ATOM     12  C   UNL d   1      15.296  17.201  -1.303  0.00  0.00     0.028 A 
ATOM     13  C   UNL d   1      15.357  17.993  -1.533  0.00  0.00     0.002 C 
ATOM     14  C   UNL d   1      15.543  16.972  -0.555  0.00  0.00     0.140 A 
ATOM     15  C   UNL d   1      15.483  16.176  -0.321  0.00  0.00     0.030 A 
ATOM     16  F   UNL d   1      15.851  17.530  -0.031  0.00  0.00    -0.204 F 
ATOM     17  C   UNL d   1      15.175  15.619  -0.844  0.00  0.00     0.015 A 
ENDBRANCH   7  10
ENDBRANCH   1   7
BRANCH   2  18
ATOM     18  C   UNL d   1      13.386  13.072  -4.218  0.00  0.00     0.064 A 
ATOM     19  C   UNL d   1      13.122  12.346  -3.940  0.00  0.00     0.016 A 
ATOM     20  C   UNL d   1      12.813  11.789  -4.464  0.00  0.00     0.001 A 
ATOM     21  C   UNL d   1      13.164  12.175  -3.132  0.00  0.00     0.002 C 
ATOM     22  C   UNL d   1      12.770  11.957  -5.264  0.00  0.00     0.000 A 
ATOM     23  C   UNL d   1      13.036  12.689  -5.554  0.00  0.00     0.001 A 
ATOM     24  C   UNL d   1      13.345  13.247  -5.031  0.00  0.00     0.016 A 
ATOM     25  C   UNL d   1      13.609  13.973  -5.309  0.00  0.00     0.002 C 
ENDBRANCH   2  18
TORSDOF 3
ENDMDL
