MODEL 1
REMARK VINA RESULT:      -3.3      0.000      0.000
REMARK  6 active torsions:
REMARK  status: ('A' for Active; 'I' for Inactive)
REMARK    1  A    between atoms: C_7  and  C_1 
REMARK    2  A    between atoms: C_9  and  N_2 
REMARK    3  A    between atoms: C_18  and  C_7 
REMARK    4  A    between atoms: C_8  and  C_9 
REMARK       I    between atoms: N_14  and  C_8 
REMARK    5  A    between atoms: C_16  and  N_14 
REMARK    6  A    between atoms: C_29  and  C_23 
ROOT
ATOM      1  C   UNL d   1     -39.950  14.854  21.062  0.00  0.00     0.095 A 
ATOM      2  N   UNL d   1     -40.842  14.094  20.211  0.00  0.00    -0.300 N 
ATOM      3  C   UNL d   1     -39.720  15.309  20.413  0.00  0.00     0.202 A 
ATOM      4  C   UNL d   1     -40.515  14.241  20.967  0.00  0.00     0.087 A 
ATOM      5  C   UNL d   1     -40.048  15.162  19.657  0.00  0.00     0.055 A 
ATOM      6  C   UNL d   1     -40.613  14.549  19.562  0.00  0.00     0.067 A 
ATOM      7  C   UNL d   1     -40.940  14.399  18.820  0.00  0.00     0.018 A 
ATOM      8  C   UNL d   1     -39.818  15.617  19.008  0.00  0.00     0.005 A 
ATOM      9  O   UNL d   1     -39.163  15.913  20.506  0.00  0.00    -0.286 OA
ATOM     10  C   UNL d   1     -40.145  15.467  18.267  0.00  0.00     0.000 A 
ATOM     11  C   UNL d   1     -40.710  14.854  18.172  0.00  0.00     0.002 A 
ENDROOT
BRANCH   2  12
ATOM     12  C   UNL d   1     -41.399  13.490  20.118  0.00  0.00     0.144 C 
BRANCH  12  13
ATOM     13  C   UNL d   1     -42.057  13.454  20.614  0.00  0.00     0.297 C 
ATOM     14  N   UNL d   1     -42.456  12.738  20.722  0.00  0.00    -0.207 NA
ATOM     15  O   UNL d   1     -42.318  14.134  21.001  0.00  0.00    -0.264 OA
BRANCH  14  16
ATOM     16  C   UNL d   1     -43.114  12.702  21.219  0.00  0.00     0.086 A 
ATOM     17  C   UNL d   1     -43.153  12.128  21.809  0.00  0.00     0.031 A 
ATOM     18  C   UNL d   1     -43.802  12.084  22.307  0.00  0.00     0.059 A 
ATOM     19 CL   UNL d   1     -43.837  11.507  22.898  0.00  0.00    -0.082 Cl
ATOM     20  C   UNL d   1     -44.431  12.631  22.210  0.00  0.00     0.011 A 
ATOM     21  C   UNL d   1     -44.391  13.206  21.620  0.00  0.00     0.002 A 
ATOM     22  C   UNL d   1     -45.086  12.593  22.707  0.00  0.00     0.001 C 
ATOM     23  C   UNL d   1     -43.733  13.241  21.124  0.00  0.00     0.019 A 
ENDBRANCH  14  16
ENDBRANCH  12  13
ENDBRANCH   2  12
BRANCH   1  24
ATOM     24  C   UNL d   1     -39.631  14.991  21.815  0.00  0.00     0.200 C 
ATOM     25  O   UNL d   1     -39.813  15.711  22.208  0.00  0.00    -0.286 OA
BRANCH  24  26
ATOM     26  C   UNL d   1     -39.141  14.436  22.177  0.00  0.00     0.039 A 
ATOM     27  C   UNL d   1     -39.374  14.100  22.896  0.00  0.00     0.003 A 
ATOM     28  C   UNL d   1     -38.884  13.544  23.258  0.00  0.00     0.000 A 
ATOM     29  C   UNL d   1     -38.172  13.330  22.903  0.00  0.00     0.000 A 
ATOM     30  C   UNL d   1     -37.948  13.672  22.184  0.00  0.00     0.000 A 
ATOM     31  C   UNL d   1     -38.438  14.228  21.821  0.00  0.00     0.003 A 
ENDBRANCH  24  26
ENDBRANCH   1  24
BRANCH  10  32
ATOM     32  C   UNL d   1     -39.915  15.922  17.617  0.00  0.00     0.000 C 
ATOM     33  C   UNL d   1     -39.766  15.557  16.888  0.00  0.00     0.000 C 
ENDBRANCH  10  32
TORSDOF 6
ENDMDL
MODEL 2
REMARK VINA RESULT:      -3.3      1.239      1.466
REMARK  6 active torsions:
REMARK  status: ('A' for Active; 'I' for Inactive)
REMARK    1  A    between atoms: C_7  and  C_1 
REMARK    2  A    between atoms: C_9  and  N_2 
REMARK    3  A    between atoms: C_18  and  C_7 
REMARK    4  A    between atoms: C_8  and  C_9 
REMARK       I    between atoms: N_14  and  C_8 
REMARK    5  A    between atoms: C_16  and  N_14 
REMARK    6  A    between atoms: C_29  and  C_23 
ROOT
ATOM      1  C   UNL d   1     -39.203  14.104  20.758  0.00  0.00     0.095 A 
ATOM      2  N   UNL d   1     -40.480  14.411  20.150  0.00  0.00    -0.300 N 
ATOM      3  C   UNL d   1     -38.868  14.016  20.009  0.00  0.00     0.202 A 
ATOM      4  C   UNL d   1     -40.014  14.303  20.836  0.00  0.00     0.087 A 
ATOM      5  C   UNL d   1     -39.334  14.124  19.324  0.00  0.00     0.055 A 
ATOM      6  C   UNL d   1     -40.146  14.323  19.401  0.00  0.00     0.067 A 
ATOM      7  C   UNL d   1     -40.610  14.432  18.728  0.00  0.00     0.018 A 
ATOM      8  C   UNL d   1     -38.999  14.036  18.575  0.00  0.00     0.005 A 
ATOM      9  O   UNL d   1     -38.068  13.819  19.933  0.00  0.00    -0.286 OA
ATOM     10  C   UNL d   1     -39.464  14.144  17.903  0.00  0.00     0.000 A 
ATOM     11  C   UNL d   1     -40.276  14.344  17.980  0.00  0.00     0.002 A 
ENDROOT
BRANCH   2  12
ATOM     12  C   UNL d   1     -41.280  14.608  20.226  0.00  0.00     0.144 C 
BRANCH  12  13
ATOM     13  C   UNL d   1     -41.757  14.197  20.758  0.00  0.00     0.297 C 
ATOM     14  N   UNL d   1     -42.177  13.529  20.508  0.00  0.00    -0.207 NA
ATOM     15  O   UNL d   1     -41.815  14.452  21.540  0.00  0.00    -0.264 OA
BRANCH  14  16
ATOM     16  C   UNL d   1     -42.654  13.118  21.040  0.00  0.00     0.086 A 
ATOM     17  C   UNL d   1     -43.457  13.298  21.097  0.00  0.00     0.031 A 
ATOM     18  C   UNL d   1     -43.939  12.896  21.622  0.00  0.00     0.059 A 
ATOM     19 CL   UNL d   1     -44.744  13.080  21.676  0.00  0.00    -0.082 Cl
ATOM     20  C   UNL d   1     -43.608  12.295  22.106  0.00  0.00     0.011 A 
ATOM     21  C   UNL d   1     -42.805  12.115  22.049  0.00  0.00     0.002 A 
ATOM     22  C   UNL d   1     -44.087  11.887  22.636  0.00  0.00     0.001 C 
ATOM     23  C   UNL d   1     -42.328  12.526  21.517  0.00  0.00     0.019 A 
ENDBRANCH  14  16
ENDBRANCH  12  13
ENDBRANCH   2  12
BRANCH   1  24
ATOM     24  C   UNL d   1     -38.749  13.999  21.444  0.00  0.00     0.200 C 
ATOM     25  O   UNL d   1     -38.403  13.247  21.591  0.00  0.00    -0.286 OA
BRANCH  24  26
ATOM     26  C   UNL d   1     -38.635  14.617  21.978  0.00  0.00     0.039 A 
ATOM     27  C   UNL d   1     -38.889  14.528  22.760  0.00  0.00     0.003 A 
ATOM     28  C   UNL d   1     -38.775  15.146  23.294  0.00  0.00     0.000 A 
ATOM     29  C   UNL d   1     -38.411  15.843  23.044  0.00  0.00     0.000 A 
ATOM     30  C   UNL d   1     -38.160  15.921  22.260  0.00  0.00     0.000 A 
ATOM     31  C   UNL d   1     -38.274  15.303  21.726  0.00  0.00     0.003 A 
ENDBRANCH  24  26
ENDBRANCH   1  24
BRANCH  10  32
ATOM     32  C   UNL d   1     -39.129  14.056  17.153  0.00  0.00     0.000 C 
ATOM     33  C   UNL d   1     -39.338  14.577  16.542  0.00  0.00     0.000 C 
ENDBRANCH  10  32
TORSDOF 6
ENDMDL
MODEL 3
REMARK VINA RESULT:      -1.6      5.383      7.103
REMARK  6 active torsions:
REMARK  status: ('A' for Active; 'I' for Inactive)
REMARK    1  A    between atoms: C_7  and  C_1 
REMARK    2  A    between atoms: C_9  and  N_2 
REMARK    3  A    between atoms: C_18  and  C_7 
REMARK    4  A    between atoms: C_8  and  C_9 
REMARK       I    between atoms: N_14  and  C_8 
REMARK    5  A    between atoms: C_16  and  N_14 
REMARK    6  A    between atoms: C_29  and  C_23 
ROOT
ATOM      1  C   UNL d   1     -45.494  12.523  22.421  0.00  0.00     0.095 A 
ATOM      2  N   UNL d   1     -46.192  11.420  23.047  0.00  0.00    -0.300 N 
ATOM      3  C   UNL d   1     -44.774  12.144  22.557  0.00  0.00     0.202 A 
ATOM      4  C   UNL d   1     -46.212  12.164  22.666  0.00  0.00     0.087 A 
ATOM      5  C   UNL d   1     -44.755  11.400  22.938  0.00  0.00     0.055 A 
ATOM      6  C   UNL d   1     -45.472  11.040  23.183  0.00  0.00     0.067 A 
ATOM      7  C   UNL d   1     -45.459  10.307  23.560  0.00  0.00     0.018 A 
ATOM      8  C   UNL d   1     -44.034  11.021  23.074  0.00  0.00     0.005 A 
ATOM      9  O   UNL d   1     -44.066  12.499  22.315  0.00  0.00    -0.286 OA
ATOM     10  C   UNL d   1     -44.022  10.287  23.451  0.00  0.00     0.000 A 
ATOM     11  C   UNL d   1     -44.740   9.928  23.695  0.00  0.00     0.002 A 
ENDROOT
BRANCH   2  12
ATOM     12  C   UNL d   1     -46.899  11.065  23.288  0.00  0.00     0.144 C 
BRANCH  12  13
ATOM     13  C   UNL d   1     -47.602  11.496  23.273  0.00  0.00     0.297 C 
ATOM     14  N   UNL d   1     -48.250  11.216  22.841  0.00  0.00    -0.207 NA
ATOM     15  O   UNL d   1     -47.660  12.205  23.690  0.00  0.00    -0.264 OA
BRANCH  14  16
ATOM     16  C   UNL d   1     -48.953  11.646  22.826  0.00  0.00     0.086 A 
ATOM     17  C   UNL d   1     -49.311  11.825  22.105  0.00  0.00     0.031 A 
ATOM     18  C   UNL d   1     -50.009  12.251  22.080  0.00  0.00     0.059 A 
ATOM     19 CL   UNL d   1     -50.365  12.429  21.354  0.00  0.00    -0.082 Cl
ATOM     20  C   UNL d   1     -50.361  12.506  22.797  0.00  0.00     0.011 A 
ATOM     21  C   UNL d   1     -50.004  12.327  23.519  0.00  0.00     0.002 A 
ATOM     22  C   UNL d   1     -51.063  12.935  22.779  0.00  0.00     0.001 C 
ATOM     23  C   UNL d   1     -49.300  11.897  23.534  0.00  0.00     0.019 A 
ENDBRANCH  14  16
ENDBRANCH  12  13
ENDBRANCH   2  12
BRANCH   1  24
ATOM     24  C   UNL d   1     -45.524  13.261  22.044  0.00  0.00     0.200 C 
ATOM     25  O   UNL d   1     -45.015  13.404  21.390  0.00  0.00    -0.286 OA
BRANCH  24  26
ATOM     26  C   UNL d   1     -46.042  13.850  22.300  0.00  0.00     0.039 A 
ATOM     27  C   UNL d   1     -46.649  14.100  21.797  0.00  0.00     0.003 A 
ATOM     28  C   UNL d   1     -47.167  14.688  22.054  0.00  0.00     0.000 A 
ATOM     29  C   UNL d   1     -47.075  15.019  22.804  0.00  0.00     0.000 A 
ATOM     30  C   UNL d   1     -46.464  14.761  23.298  0.00  0.00     0.000 A 
ATOM     31  C   UNL d   1     -45.946  14.173  23.042  0.00  0.00     0.003 A 
ENDBRANCH  24  26
ENDBRANCH   1  24
BRANCH  10  32
ATOM     32  C   UNL d   1     -43.301   9.907  23.586  0.00  0.00     0.000 C 
ATOM     33  C   UNL d   1     -43.230   9.094  23.447  0.00  0.00     0.000 C 
ENDBRANCH  10  32
TORSDOF 6
ENDMDL
MODEL 4
REMARK VINA RESULT:      -1.4      1.367      3.426
REMARK  6 active torsions:
REMARK  status: ('A' for Active; 'I' for Inactive)
REMARK    1  A    between atoms: C_7  and  C_1 
REMARK    2  A    between atoms: C_9  and  N_2 
REMARK    3  A    between atoms: C_18  and  C_7 
REMARK    4  A    between atoms: C_8  and  C_9 
REMARK       I    between atoms: N_14  and  C_8 
REMARK    5  A    between atoms: C_16  and  N_14 
REMARK    6  A    between atoms: C_29  and  C_23 
ROOT
ATOM      1  C   UNL d   1     -39.572  14.509  19.324  0.00  0.00     0.095 A 
ATOM      2  N   UNL d   1     -40.495  14.906  20.368  0.00  0.00    -0.300 N 
ATOM      3  C   UNL d   1     -38.939  14.763  19.789  0.00  0.00     0.202 A 
ATOM      4  C   UNL d   1     -40.358  14.579  19.610  0.00  0.00     0.087 A 
ATOM      5  C   UNL d   1     -39.076  15.091  20.546  0.00  0.00     0.055 A 
ATOM      6  C   UNL d   1     -39.862  15.160  20.832  0.00  0.00     0.067 A 
ATOM      7  C   UNL d   1     -40.003  15.482  21.578  0.00  0.00     0.018 A 
ATOM      8  C   UNL d   1     -38.443  15.344  21.011  0.00  0.00     0.005 A 
ATOM      9  O   UNL d   1     -38.164  14.695  19.507  0.00  0.00    -0.286 OA
ATOM     10  C   UNL d   1     -38.585  15.666  21.756  0.00  0.00     0.000 A 
ATOM     11  C   UNL d   1     -39.371  15.736  22.042  0.00  0.00     0.002 A 
ENDROOT
BRANCH   2  12
ATOM     12  C   UNL d   1     -41.269  14.975  20.649  0.00  0.00     0.144 C 
BRANCH  12  13
ATOM     13  C   UNL d   1     -41.710  14.297  20.813  0.00  0.00     0.297 C 
ATOM     14  N   UNL d   1     -42.344  14.334  21.343  0.00  0.00    -0.207 NA
ATOM     15  O   UNL d   1     -41.519  13.583  20.448  0.00  0.00    -0.264 OA
BRANCH  14  16
ATOM     16  C   UNL d   1     -42.785  13.657  21.507  0.00  0.00     0.086 A 
ATOM     17  C   UNL d   1     -43.609  13.691  21.500  0.00  0.00     0.031 A 
ATOM     18  C   UNL d   1     -44.056  13.024  21.661  0.00  0.00     0.059 A 
ATOM     19 CL   UNL d   1     -44.883  13.063  21.653  0.00  0.00    -0.082 Cl
ATOM     20  C   UNL d   1     -43.667  12.301  21.835  0.00  0.00     0.011 A 
ATOM     21  C   UNL d   1     -42.843  12.267  21.842  0.00  0.00     0.002 A 
ATOM     22  C   UNL d   1     -44.110  11.627  21.998  0.00  0.00     0.001 C 
ATOM     23  C   UNL d   1     -42.402  12.944  21.678  0.00  0.00     0.019 A 
ENDBRANCH  14  16
ENDBRANCH  12  13
ENDBRANCH   2  12
BRANCH   1  24
ATOM     24  C   UNL d   1     -39.447  14.183  18.572  0.00  0.00     0.200 C 
ATOM     25  O   UNL d   1     -39.062  13.439  18.511  0.00  0.00    -0.286 OA
BRANCH  24  26
ATOM     26  C   UNL d   1     -39.692  14.578  17.891  0.00  0.00     0.039 A 
ATOM     27  C   UNL d   1     -39.195  15.146  17.552  0.00  0.00     0.003 A 
ATOM     28  C   UNL d   1     -39.441  15.540  16.871  0.00  0.00     0.000 A 
ATOM     29  C   UNL d   1     -40.175  15.367  16.537  0.00  0.00     0.000 A 
ATOM     30  C   UNL d   1     -40.664  14.798  16.885  0.00  0.00     0.000 A 
ATOM     31  C   UNL d   1     -40.418  14.403  17.566  0.00  0.00     0.003 A 
ENDBRANCH  24  26
ENDBRANCH   1  24
BRANCH  10  32
ATOM     32  C   UNL d   1     -37.951  15.920  22.221  0.00  0.00     0.000 C 
ATOM     33  C   UNL d   1     -37.940  15.752  23.033  0.00  0.00     0.000 C 
ENDBRANCH  10  32
TORSDOF 6
ENDMDL
MODEL 5
REMARK VINA RESULT:      -0.9      3.184      4.411
REMARK  6 active torsions:
REMARK  status: ('A' for Active; 'I' for Inactive)
REMARK    1  A    between atoms: C_7  and  C_1 
REMARK    2  A    between atoms: C_9  and  N_2 
REMARK    3  A    between atoms: C_18  and  C_7 
REMARK    4  A    between atoms: C_8  and  C_9 
REMARK       I    between atoms: N_14  and  C_8 
REMARK    5  A    between atoms: C_16  and  N_14 
REMARK    6  A    between atoms: C_29  and  C_23 
ROOT
ATOM      1  C   UNL d   1     -39.868  14.292  19.606  0.00  0.00     0.095 A 
ATOM      2  N   UNL d   1     -38.763  13.886  18.763  0.00  0.00    -0.300 N 
ATOM      3  C   UNL d   1     -40.210  14.685  18.966  0.00  0.00     0.202 A 
ATOM      4  C   UNL d   1     -39.139  13.888  19.510  0.00  0.00     0.087 A 
ATOM      5  C   UNL d   1     -39.834  14.683  18.219  0.00  0.00     0.055 A 
ATOM      6  C   UNL d   1     -39.105  14.278  18.123  0.00  0.00     0.067 A 
ATOM      7  C   UNL d   1     -38.729  14.273  17.389  0.00  0.00     0.018 A 
ATOM      8  C   UNL d   1     -40.176  15.075  17.579  0.00  0.00     0.005 A 
ATOM      9  O   UNL d   1     -40.929  15.084  19.061  0.00  0.00    -0.286 OA
ATOM     10  C   UNL d   1     -39.800  15.069  16.846  0.00  0.00     0.000 A 
ATOM     11  C   UNL d   1     -39.071  14.665  16.750  0.00  0.00     0.002 A 
ENDROOT
BRANCH   2  12
ATOM     12  C   UNL d   1     -38.044  13.487  18.669  0.00  0.00     0.144 C 
BRANCH  12  13
ATOM     13  C   UNL d   1     -38.017  12.665  18.730  0.00  0.00     0.297 C 
ATOM     14  N   UNL d   1     -38.054  12.198  18.049  0.00  0.00    -0.207 NA
ATOM     15  O   UNL d   1     -37.952  12.310  19.472  0.00  0.00    -0.264 OA
BRANCH  14  16
ATOM     16  C   UNL d   1     -38.027  11.376  18.110  0.00  0.00     0.086 A 
ATOM     17  C   UNL d   1     -38.003  10.913  17.428  0.00  0.00     0.031 A 
ATOM     18  C   UNL d   1     -37.975  10.096  17.479  0.00  0.00     0.059 A 
ATOM     19 CL   UNL d   1     -37.951   9.635  16.792  0.00  0.00    -0.082 Cl
ATOM     20  C   UNL d   1     -37.972   9.731  18.234  0.00  0.00     0.011 A 
ATOM     21  C   UNL d   1     -37.996  10.194  18.916  0.00  0.00     0.002 A 
ATOM     22  C   UNL d   1     -37.944   8.911  18.292  0.00  0.00     0.001 C 
ATOM     23  C   UNL d   1     -38.024  11.016  18.855  0.00  0.00     0.019 A 
ENDBRANCH  14  16
ENDBRANCH  12  13
ENDBRANCH   2  12
BRANCH   1  24
ATOM     24  C   UNL d   1     -40.233  14.289  20.350  0.00  0.00     0.200 C 
ATOM     25  O   UNL d   1     -40.957  13.873  20.446  0.00  0.00    -0.286 OA
BRANCH  24  26
ATOM     26  C   UNL d   1     -39.897  14.685  20.991  0.00  0.00     0.039 A 
ATOM     27  C   UNL d   1     -40.062  15.488  21.101  0.00  0.00     0.003 A 
ATOM     28  C   UNL d   1     -39.726  15.884  21.742  0.00  0.00     0.000 A 
ATOM     29  C   UNL d   1     -39.231  15.478  22.263  0.00  0.00     0.000 A 
ATOM     30  C   UNL d   1     -39.073  14.675  22.143  0.00  0.00     0.000 A 
ATOM     31  C   UNL d   1     -39.409  14.279  21.502  0.00  0.00     0.003 A 
ENDBRANCH  24  26
ENDBRANCH   1  24
BRANCH  10  32
ATOM     32  C   UNL d   1     -40.143  15.462  16.205  0.00  0.00     0.000 C 
ATOM     33  C   UNL d   1     -40.968  15.499  16.135  0.00  0.00     0.000 C 
ENDBRANCH  10  32
TORSDOF 6
ENDMDL
MODEL 6
REMARK VINA RESULT:      -0.5      2.353      6.452
REMARK  6 active torsions:
REMARK  status: ('A' for Active; 'I' for Inactive)
REMARK    1  A    between atoms: C_7  and  C_1 
REMARK    2  A    between atoms: C_9  and  N_2 
REMARK    3  A    between atoms: C_18  and  C_7 
REMARK    4  A    between atoms: C_8  and  C_9 
REMARK       I    between atoms: N_14  and  C_8 
REMARK    5  A    between atoms: C_16  and  N_14 
REMARK    6  A    between atoms: C_29  and  C_23 
ROOT
ATOM      1  C   UNL d   1     -45.526  13.013  22.602  0.00  0.00     0.095 A 
ATOM      2  N   UNL d   1     -44.348  12.682  21.828  0.00  0.00    -0.300 N 
ATOM      3  C   UNL d   1     -45.408  12.342  23.068  0.00  0.00     0.202 A 
ATOM      4  C   UNL d   1     -44.996  13.190  21.977  0.00  0.00     0.087 A 
ATOM      5  C   UNL d   1     -44.760  11.834  22.919  0.00  0.00     0.055 A 
ATOM      6  C   UNL d   1     -44.230  12.011  22.293  0.00  0.00     0.067 A 
ATOM      7  C   UNL d   1     -43.590  11.513  22.142  0.00  0.00     0.018 A 
ATOM      8  C   UNL d   1     -44.643  11.163  23.384  0.00  0.00     0.005 A 
ATOM      9  O   UNL d   1     -45.931  12.167  23.685  0.00  0.00    -0.286 OA
ATOM     10  C   UNL d   1     -44.002  10.666  23.232  0.00  0.00     0.000 A 
ATOM     11  C   UNL d   1     -43.472  10.843  22.606  0.00  0.00     0.002 A 
ENDROOT
BRANCH   2  12
ATOM     12  C   UNL d   1     -43.826  12.856  21.212  0.00  0.00     0.144 C 
BRANCH  12  13
ATOM     13  C   UNL d   1     -43.256  13.445  21.307  0.00  0.00     0.297 C 
ATOM     14  N   UNL d   1     -42.571  13.437  20.843  0.00  0.00    -0.207 NA
ATOM     15  O   UNL d   1     -43.370  14.041  21.866  0.00  0.00    -0.264 OA
BRANCH  14  16
ATOM     16  C   UNL d   1     -42.001  14.026  20.939  0.00  0.00     0.086 A 
ATOM     17  C   UNL d   1     -41.243  13.827  21.195  0.00  0.00     0.031 A 
ATOM     18  C   UNL d   1     -40.671  14.404  21.293  0.00  0.00     0.059 A 
ATOM     19 CL   UNL d   1     -39.911  14.200  21.550  0.00  0.00    -0.082 Cl
ATOM     20  C   UNL d   1     -40.862  15.205  21.129  0.00  0.00     0.011 A 
ATOM     21  C   UNL d   1     -41.620  15.404  20.873  0.00  0.00     0.002 A 
ATOM     22  C   UNL d   1     -40.291  15.790  21.226  0.00  0.00     0.001 C 
ATOM     23  C   UNL d   1     -42.190  14.815  20.778  0.00  0.00     0.019 A 
ENDBRANCH  14  16
ENDBRANCH  12  13
ENDBRANCH   2  12
BRANCH   1  24
ATOM     24  C   UNL d   1     -46.166  13.522  22.742  0.00  0.00     0.200 C 
ATOM     25  O   UNL d   1     -46.048  14.198  23.227  0.00  0.00    -0.286 OA
BRANCH  24  26
ATOM     26  C   UNL d   1     -46.907  13.374  22.413  0.00  0.00     0.039 A 
ATOM     27  C   UNL d   1     -47.009  13.450  21.596  0.00  0.00     0.003 A 
ATOM     28  C   UNL d   1     -47.751  13.302  21.267  0.00  0.00     0.000 A 
ATOM     29  C   UNL d   1     -48.380  13.081  21.754  0.00  0.00     0.000 A 
ATOM     30  C   UNL d   1     -48.266  13.008  22.569  0.00  0.00     0.000 A 
ATOM     31  C   UNL d   1     -47.524  13.156  22.898  0.00  0.00     0.003 A 
ENDBRANCH  24  26
ENDBRANCH   1  24
BRANCH  10  32
ATOM     32  C   UNL d   1     -43.884   9.994  23.698  0.00  0.00     0.000 C 
ATOM     33  C   UNL d   1     -43.983   9.240  23.368  0.00  0.00     0.000 C 
ENDBRANCH  10  32
TORSDOF 6
ENDMDL
