MODEL 1
REMARK VINA RESULT:      55.6      0.000      0.000
REMARK  4 active torsions:
REMARK  status: ('A' for Active; 'I' for Inactive)
REMARK    1  A    between atoms: C_7  and  C_1 
REMARK    2  A    between atoms: N_5  and  C_3 
REMARK       I    between atoms: C_8  and  N_5 
REMARK    3  A    between atoms: C_9  and  C_8 
REMARK    4  A    between atoms: O_21  and  C_15 
ROOT
ATOM      1  C   UNL d   1     -55.144-100.779 -42.982  0.00  0.00     0.137 A 
ATOM      2  S   UNL d   1     -55.142-100.563 -42.188  0.00  0.00    -0.026 SA
ATOM      3  C   UNL d   1     -55.035-101.237 -41.732  0.00  0.00     0.219 A 
ATOM      4  N   UNL d   1     -55.035-101.607 -43.019  0.00  0.00    -0.139 NA
ATOM      5  N   UNL d   1     -54.967-101.889 -42.248  0.00  0.00    -0.121 NA
ENDROOT
BRANCH   3   6
ATOM      6  N   UNL d   1     -54.999-101.269 -40.910  0.00  0.00    -0.181 NA
ATOM      7  C   UNL d   1     -54.852-101.900 -40.394  0.00  0.00     0.281 C 
ATOM      8  O   UNL d   1     -54.711-102.647 -40.693  0.00  0.00    -0.265 OA
BRANCH   7   9
ATOM      9  C   UNL d   1     -54.850-101.765 -39.579  0.00  0.00     0.060 A 
ATOM     10  C   UNL d   1     -54.960-102.402 -39.066  0.00  0.00     0.031 A 
ATOM     11  C   UNL d   1     -54.959-102.276 -38.259  0.00  0.00     0.119 A 
ATOM     12  O   UNL d   1     -55.052-102.786 -37.621  0.00  0.00    -0.300 OA
ATOM     13  C   UNL d   1     -54.851-101.516 -37.957  0.00  0.00     0.119 A 
ATOM     14  C   UNL d   1     -55.001-102.344 -36.921  0.00  0.00     0.304 A 
ATOM     15  O   UNL d   1     -54.876-101.555 -37.133  0.00  0.00    -0.300 OA
ATOM     16  C   UNL d   1     -54.741-100.879 -38.471  0.00  0.00     0.026 A 
ATOM     17  C   UNL d   1     -54.741-101.004 -39.282  0.00  0.00     0.007 A 
ENDBRANCH   7   9
ENDBRANCH   3   6
BRANCH   1  18
ATOM     18  C   UNL d   1     -55.237-100.273 -43.630  0.00  0.00     0.048 A 
ATOM     19  C   UNL d   1     -55.459-100.570 -44.374  0.00  0.00     0.096 A 
ATOM     20  C   UNL d   1     -55.550-100.072 -45.011  0.00  0.00     0.024 A 
ATOM     21  C   UNL d   1     -55.419 -99.259 -44.916  0.00  0.00     0.002 A 
ATOM     22  C   UNL d   1     -55.200 -98.955 -44.191  0.00  0.00     0.000 A 
ATOM     23  C   UNL d   1     -55.109 -99.469 -43.546  0.00  0.00     0.004 A 
BRANCH  19  24
ATOM     24  O   UNL d   1     -55.586-101.375 -44.458  0.00  0.00    -0.328 OA
ATOM     25  C   UNL d   1     -55.876-101.672 -45.172  0.00  0.00     0.181 C 
ENDBRANCH  19  24
ENDBRANCH   1  18
TORSDOF 4
ENDMDL
