MODEL 1
REMARK VINA RESULT:      -8.1      0.000      0.000
REMARK  4 active torsions:
REMARK  status: ('A' for Active; 'I' for Inactive)
REMARK    1  A    between atoms: C_5  and  N_1 
REMARK    2  A    between atoms: C_7  and  C_5 
REMARK    3  A    between atoms: O_10  and  C_9 
REMARK    4  A    between atoms: C_15  and  O_10 
ROOT
ATOM      1  N   UNL d   1     -48.274  12.748  23.310  0.00  0.00    -0.268 N 
ATOM      2  C   UNL d   1     -48.194  11.937  23.478  0.00  0.00     0.296 A 
ATOM      3  S   UNL d   1     -47.399  11.740  23.383  0.00  0.00    -0.025 SA
ATOM      4  C   UNL d   1     -47.526  13.043  23.114  0.00  0.00     0.073 A 
ATOM      5  C   UNL d   1     -46.987  12.416  23.160  0.00  0.00     0.050 A 
ATOM      6  O   UNL d   1     -48.801  11.425  23.698  0.00  0.00    -0.259 OA
ATOM      7  C   UNL d   1     -47.274  13.794  22.902  0.00  0.00     0.018 A 
ATOM      8  C   UNL d   1     -46.183  12.556  22.989  0.00  0.00     0.008 A 
ATOM      9  C   UNL d   1     -46.478  13.928  22.734  0.00  0.00     0.002 A 
ATOM     10  C   UNL d   1     -45.937  13.314  22.777  0.00  0.00     0.001 A 
ENDROOT
BRANCH   1  11
ATOM     11  C   UNL d   1     -48.973  13.181  23.335  0.00  0.00     0.086 C 
BRANCH  11  12
ATOM     12  C   UNL d   1     -49.488  13.165  22.687  0.00  0.00     0.040 A 
ATOM     13  C   UNL d   1     -50.058  13.750  22.618  0.00  0.00     0.102 A 
ATOM     14  C   UNL d   1     -50.568  13.736  21.978  0.00  0.00     0.025 A 
ATOM     15  C   UNL d   1     -50.510  13.136  21.403  0.00  0.00     0.002 A 
ATOM     16  C   UNL d   1     -49.932  12.553  21.485  0.00  0.00     0.000 A 
ATOM     17  C   UNL d   1     -49.418  12.570  22.133  0.00  0.00     0.004 A 
BRANCH  13  18
ATOM     18  O   UNL d   1     -50.092  14.330  23.200  0.00  0.00    -0.305 OA
BRANCH  18  19
ATOM     19  C   UNL d   1     -50.672  14.918  23.166  0.00  0.00     0.123 C 
ATOM     20  C   UNL d   1     -50.644  15.553  23.697  0.00  0.00     0.029 C 
ENDBRANCH  18  19
ENDBRANCH  13  18
ENDBRANCH  11  12
ENDBRANCH   1  11
TORSDOF 4
ENDMDL
MODEL 2
REMARK VINA RESULT:      -8.1      1.490      3.524
REMARK  4 active torsions:
REMARK  status: ('A' for Active; 'I' for Inactive)
REMARK    1  A    between atoms: C_5  and  N_1 
REMARK    2  A    between atoms: C_7  and  C_5 
REMARK    3  A    between atoms: O_10  and  C_9 
REMARK    4  A    between atoms: C_15  and  O_10 
ROOT
ATOM      1  N   UNL d   1     -49.172  13.651  22.132  0.00  0.00    -0.268 N 
ATOM      2  C   UNL d   1     -49.767  13.309  21.663  0.00  0.00     0.296 A 
ATOM      3  S   UNL d   1     -50.458  13.744  21.781  0.00  0.00    -0.025 SA
ATOM      4  C   UNL d   1     -49.501  14.294  22.535  0.00  0.00     0.073 A 
ATOM      5  C   UNL d   1     -50.298  14.348  22.316  0.00  0.00     0.050 A 
ATOM      6  O   UNL d   1     -49.681  12.654  21.170  0.00  0.00    -0.259 OA
ATOM      7  C   UNL d   1     -49.179  14.829  23.067  0.00  0.00     0.018 A 
ATOM      8  C   UNL d   1     -50.771  14.953  22.641  0.00  0.00     0.008 A 
ATOM      9  C   UNL d   1     -49.650  15.425  23.387  0.00  0.00     0.002 A 
ATOM     10  C   UNL d   1     -50.439  15.487  23.176  0.00  0.00     0.001 A 
ENDROOT
BRANCH   1  11
ATOM     11  C   UNL d   1     -48.391  13.395  22.187  0.00  0.00     0.086 C 
BRANCH  11  12
ATOM     12  C   UNL d   1     -48.200  12.770  22.693  0.00  0.00     0.040 A 
ATOM     13  C   UNL d   1     -47.411  12.621  22.863  0.00  0.00     0.102 A 
ATOM     14  C   UNL d   1     -47.221  12.003  23.363  0.00  0.00     0.025 A 
ATOM     15  C   UNL d   1     -47.818  11.529  23.698  0.00  0.00     0.002 A 
ATOM     16  C   UNL d   1     -48.607  11.688  23.519  0.00  0.00     0.000 A 
ATOM     17  C   UNL d   1     -48.798  12.314  23.013  0.00  0.00     0.004 A 
BRANCH  13  18
ATOM     18  O   UNL d   1     -46.844  13.106  22.518  0.00  0.00    -0.305 OA
BRANCH  18  19
ATOM     19  C   UNL d   1     -46.041  12.964  22.653  0.00  0.00     0.123 C 
ATOM     20  C   UNL d   1     -45.471  13.426  22.267  0.00  0.00     0.029 C 
ENDBRANCH  18  19
ENDBRANCH  13  18
ENDBRANCH  11  12
ENDBRANCH   1  11
TORSDOF 4
ENDMDL
MODEL 3
REMARK VINA RESULT:      -7.8      1.602      3.841
REMARK  4 active torsions:
REMARK  status: ('A' for Active; 'I' for Inactive)
REMARK    1  A    between atoms: C_5  and  N_1 
REMARK    2  A    between atoms: C_7  and  C_5 
REMARK    3  A    between atoms: O_10  and  C_9 
REMARK    4  A    between atoms: C_15  and  O_10 
ROOT
ATOM      1  N   UNL d   1     -48.808  12.487  22.226  0.00  0.00    -0.268 N 
ATOM      2  C   UNL d   1     -48.979  12.775  21.465  0.00  0.00     0.296 A 
ATOM      3  S   UNL d   1     -49.792  12.914  21.428  0.00  0.00    -0.025 SA
ATOM      4  C   UNL d   1     -49.517  12.449  22.651  0.00  0.00     0.073 A 
ATOM      5  C   UNL d   1     -50.124  12.714  22.154  0.00  0.00     0.050 A 
ATOM      6  O   UNL d   1     -48.435  12.901  20.860  0.00  0.00    -0.259 OA
ATOM      7  C   UNL d   1     -49.682  12.210  23.418  0.00  0.00     0.018 A 
ATOM      8  C   UNL d   1     -50.906  12.736  22.441  0.00  0.00     0.008 A 
ATOM      9  C   UNL d   1     -50.458  12.233  23.698  0.00  0.00     0.002 A 
ATOM     10  C   UNL d   1     -51.064  12.494  23.213  0.00  0.00     0.001 A 
ENDROOT
BRANCH   1  11
ATOM     11  C   UNL d   1     -48.064  12.275  22.508  0.00  0.00     0.086 C 
BRANCH  11  12
ATOM     12  C   UNL d   1     -47.511  12.864  22.687  0.00  0.00     0.040 A 
ATOM     13  C   UNL d   1     -46.779  12.645  22.983  0.00  0.00     0.102 A 
ATOM     14  C   UNL d   1     -46.231  13.226  23.160  0.00  0.00     0.025 A 
ATOM     15  C   UNL d   1     -46.413  14.031  23.042  0.00  0.00     0.002 A 
ATOM     16  C   UNL d   1     -47.153  14.237  22.743  0.00  0.00     0.000 A 
ATOM     17  C   UNL d   1     -47.705  13.648  22.565  0.00  0.00     0.004 A 
BRANCH  13  18
ATOM     18  O   UNL d   1     -46.627  11.844  23.089  0.00  0.00    -0.305 OA
BRANCH  18  19
ATOM     19  C   UNL d   1     -45.891  11.596  23.371  0.00  0.00     0.123 C 
ATOM     20  C   UNL d   1     -45.810  10.839  23.698  0.00  0.00     0.029 C 
ENDBRANCH  18  19
ENDBRANCH  13  18
ENDBRANCH  11  12
ENDBRANCH   1  11
TORSDOF 4
ENDMDL
MODEL 4
REMARK VINA RESULT:      -7.2      1.253      1.672
REMARK  4 active torsions:
REMARK  status: ('A' for Active; 'I' for Inactive)
REMARK    1  A    between atoms: C_5  and  N_1 
REMARK    2  A    between atoms: C_7  and  C_5 
REMARK    3  A    between atoms: O_10  and  C_9 
REMARK    4  A    between atoms: C_15  and  O_10 
ROOT
ATOM      1  N   UNL d   1     -47.320  13.446  23.011  0.00  0.00    -0.268 N 
ATOM      2  C   UNL d   1     -46.690  13.852  22.649  0.00  0.00     0.296 A 
ATOM      3  S   UNL d   1     -46.047  13.336  22.616  0.00  0.00    -0.025 SA
ATOM      4  C   UNL d   1     -47.059  12.683  23.198  0.00  0.00     0.073 A 
ATOM      5  C   UNL d   1     -46.270  12.619  22.952  0.00  0.00     0.050 A 
ATOM      6  O   UNL d   1     -46.708  14.628  22.373  0.00  0.00    -0.259 OA
ATOM      7  C   UNL d   1     -47.435  12.049  23.556  0.00  0.00     0.018 A 
ATOM      8  C   UNL d   1     -45.862  11.902  23.073  0.00  0.00     0.008 A 
ATOM      9  C   UNL d   1     -47.028  11.342  23.674  0.00  0.00     0.002 A 
ATOM     10  C   UNL d   1     -46.249  11.269  23.434  0.00  0.00     0.001 A 
ENDROOT
BRANCH   1  11
ATOM     11  C   UNL d   1     -48.071  13.749  23.157  0.00  0.00     0.086 C 
BRANCH  11  12
ATOM     12  C   UNL d   1     -48.638  13.746  22.554  0.00  0.00     0.040 A 
ATOM     13  C   UNL d   1     -49.288  14.242  22.617  0.00  0.00     0.102 A 
ATOM     14  C   UNL d   1     -49.849  14.241  22.022  0.00  0.00     0.025 A 
ATOM     15  C   UNL d   1     -49.764  13.742  21.360  0.00  0.00     0.002 A 
ATOM     16  C   UNL d   1     -49.106  13.248  21.309  0.00  0.00     0.000 A 
ATOM     17  C   UNL d   1     -48.540  13.251  21.912  0.00  0.00     0.004 A 
BRANCH  13  18
ATOM     18  O   UNL d   1     -49.345  14.723  23.282  0.00  0.00    -0.305 OA
BRANCH  18  19
ATOM     19  C   UNL d   1     -50.065  15.083  23.471  0.00  0.00     0.123 C 
ATOM     20  C   UNL d   1     -50.080  15.885  23.678  0.00  0.00     0.029 C 
ENDBRANCH  18  19
ENDBRANCH  13  18
ENDBRANCH  11  12
ENDBRANCH   1  11
TORSDOF 4
ENDMDL
MODEL 5
REMARK VINA RESULT:      -6.6      1.305      3.771
REMARK  4 active torsions:
REMARK  status: ('A' for Active; 'I' for Inactive)
REMARK    1  A    between atoms: C_5  and  N_1 
REMARK    2  A    between atoms: C_7  and  C_5 
REMARK    3  A    between atoms: O_10  and  C_9 
REMARK    4  A    between atoms: C_15  and  O_10 
ROOT
ATOM      1  N   UNL d   1     -49.029  13.836  23.021  0.00  0.00    -0.268 N 
ATOM      2  C   UNL d   1     -49.190  14.647  23.111  0.00  0.00     0.296 A 
ATOM      3  S   UNL d   1     -49.890  14.810  22.707  0.00  0.00    -0.025 SA
ATOM      4  C   UNL d   1     -49.632  13.506  22.561  0.00  0.00     0.073 A 
ATOM      5  C   UNL d   1     -50.163  14.111  22.368  0.00  0.00     0.050 A 
ATOM      6  O   UNL d   1     -48.731  15.190  23.530  0.00  0.00    -0.259 OA
ATOM      7  C   UNL d   1     -49.762  12.740  22.298  0.00  0.00     0.018 A 
ATOM      8  C   UNL d   1     -50.832  13.935  21.903  0.00  0.00     0.008 A 
ATOM      9  C   UNL d   1     -50.425  12.569  21.839  0.00  0.00     0.002 A 
ATOM     10  C   UNL d   1     -50.955  13.162  21.643  0.00  0.00     0.001 A 
ENDROOT
BRANCH   1  11
ATOM     11  C   UNL d   1     -48.384  13.432  23.334  0.00  0.00     0.086 C 
BRANCH  11  12
ATOM     12  C   UNL d   1     -47.633  13.541  23.003  0.00  0.00     0.040 A 
ATOM     13  C   UNL d   1     -47.067  12.956  23.099  0.00  0.00     0.102 A 
ATOM     14  C   UNL d   1     -46.325  13.062  22.773  0.00  0.00     0.025 A 
ATOM     15  C   UNL d   1     -46.144  13.754  22.347  0.00  0.00     0.002 A 
ATOM     16  C   UNL d   1     -46.721  14.336  22.257  0.00  0.00     0.000 A 
ATOM     17  C   UNL d   1     -47.472  14.226  22.589  0.00  0.00     0.004 A 
BRANCH  13  18
ATOM     18  O   UNL d   1     -47.275  12.283  23.524  0.00  0.00    -0.305 OA
BRANCH  18  19
ATOM     19  C   UNL d   1     -46.704  11.710  23.696  0.00  0.00     0.123 C 
ATOM     20  C   UNL d   1     -46.914  10.908  23.697  0.00  0.00     0.029 C 
ENDBRANCH  18  19
ENDBRANCH  13  18
ENDBRANCH  11  12
ENDBRANCH   1  11
TORSDOF 4
ENDMDL
MODEL 6
REMARK VINA RESULT:      -6.3      1.588      3.669
REMARK  4 active torsions:
REMARK  status: ('A' for Active; 'I' for Inactive)
REMARK    1  A    between atoms: C_5  and  N_1 
REMARK    2  A    between atoms: C_7  and  C_5 
REMARK    3  A    between atoms: O_10  and  C_9 
REMARK    4  A    between atoms: C_15  and  O_10 
ROOT
ATOM      1  N   UNL d   1     -48.093  12.422  22.473  0.00  0.00    -0.268 N 
ATOM      2  C   UNL d   1     -48.186  11.991  23.178  0.00  0.00     0.296 A 
ATOM      3  S   UNL d   1     -48.989  11.820  23.262  0.00  0.00    -0.025 SA
ATOM      4  C   UNL d   1     -48.840  12.513  22.128  0.00  0.00     0.073 A 
ATOM      5  C   UNL d   1     -49.392  12.139  22.619  0.00  0.00     0.050 A 
ATOM      6  O   UNL d   1     -47.585  11.774  23.698  0.00  0.00    -0.259 OA
ATOM      7  C   UNL d   1     -49.082  12.885  21.438  0.00  0.00     0.018 A 
ATOM      8  C   UNL d   1     -50.198  12.144  22.405  0.00  0.00     0.008 A 
ATOM      9  C   UNL d   1     -49.880  12.887  21.230  0.00  0.00     0.002 A 
ATOM     10  C   UNL d   1     -50.433  12.520  21.709  0.00  0.00     0.001 A 
ENDROOT
BRANCH   1  11
ATOM     11  C   UNL d   1     -47.383  12.708  22.170  0.00  0.00     0.086 C 
BRANCH  11  12
ATOM     12  C   UNL d   1     -47.094  13.439  22.429  0.00  0.00     0.040 A 
ATOM     13  C   UNL d   1     -46.286  13.580  22.400  0.00  0.00     0.102 A 
ATOM     14  C   UNL d   1     -45.998  14.301  22.655  0.00  0.00     0.025 A 
ATOM     15  C   UNL d   1     -46.516  14.888  22.941  0.00  0.00     0.002 A 
ATOM     16  C   UNL d   1     -47.325  14.734  22.965  0.00  0.00     0.000 A 
ATOM     17  C   UNL d   1     -47.615  14.003  22.706  0.00  0.00     0.004 A 
BRANCH  13  18
ATOM     18  O   UNL d   1     -45.799  12.982  22.113  0.00  0.00    -0.305 OA
BRANCH  18  19
ATOM     19  C   UNL d   1     -45.028  13.157  21.873  0.00  0.00     0.123 C 
ATOM     20  C   UNL d   1     -44.443  12.571  21.911  0.00  0.00     0.029 C 
ENDBRANCH  18  19
ENDBRANCH  13  18
ENDBRANCH  11  12
ENDBRANCH   1  11
TORSDOF 4
ENDMDL
MODEL 7
REMARK VINA RESULT:      -6.2      1.344      1.921
REMARK  4 active torsions:
REMARK  status: ('A' for Active; 'I' for Inactive)
REMARK    1  A    between atoms: C_5  and  N_1 
REMARK    2  A    between atoms: C_7  and  C_5 
REMARK    3  A    between atoms: O_10  and  C_9 
REMARK    4  A    between atoms: C_15  and  O_10 
ROOT
ATOM      1  N   UNL d   1     -47.918  13.634  22.977  0.00  0.00    -0.268 N 
ATOM      2  C   UNL d   1     -47.704  14.436  22.924  0.00  0.00     0.296 A 
ATOM      3  S   UNL d   1     -46.880  14.475  22.914  0.00  0.00    -0.025 SA
ATOM      4  C   UNL d   1     -47.222  13.186  23.000  0.00  0.00     0.073 A 
ATOM      5  C   UNL d   1     -46.582  13.709  22.961  0.00  0.00     0.050 A 
ATOM      6  O   UNL d   1     -48.223  15.075  22.887  0.00  0.00    -0.259 OA
ATOM      7  C   UNL d   1     -47.095  12.377  23.050  0.00  0.00     0.018 A 
ATOM      8  C   UNL d   1     -45.806  13.407  22.974  0.00  0.00     0.008 A 
ATOM      9  C   UNL d   1     -46.325  12.081  23.063  0.00  0.00     0.002 A 
ATOM     10  C   UNL d   1     -45.686  12.592  23.025  0.00  0.00     0.001 A 
ENDROOT
BRANCH   1  11
ATOM     11  C   UNL d   1     -48.685  13.337  23.002  0.00  0.00     0.086 C 
BRANCH  11  12
ATOM     12  C   UNL d   1     -49.132  13.300  22.307  0.00  0.00     0.040 A 
ATOM     13  C   UNL d   1     -49.833  12.874  22.307  0.00  0.00     0.102 A 
ATOM     14  C   UNL d   1     -50.276  12.835  21.621  0.00  0.00     0.025 A 
ATOM     15  C   UNL d   1     -50.021  13.223  20.929  0.00  0.00     0.002 A 
ATOM     16  C   UNL d   1     -49.315  13.649  20.942  0.00  0.00     0.000 A 
ATOM     17  C   UNL d   1     -48.868  13.686  21.637  0.00  0.00     0.004 A 
BRANCH  13  18
ATOM     18  O   UNL d   1     -50.059  12.501  23.004  0.00  0.00    -0.305 OA
BRANCH  18  19
ATOM     19  C   UNL d   1     -50.619  11.893  22.985  0.00  0.00     0.123 C 
ATOM     20  C   UNL d   1     -50.969  11.635  23.691  0.00  0.00     0.029 C 
ENDBRANCH  18  19
ENDBRANCH  13  18
ENDBRANCH  11  12
ENDBRANCH   1  11
TORSDOF 4
ENDMDL
MODEL 8
REMARK VINA RESULT:      -6.1      1.048      1.730
REMARK  4 active torsions:
REMARK  status: ('A' for Active; 'I' for Inactive)
REMARK    1  A    between atoms: C_5  and  N_1 
REMARK    2  A    between atoms: C_7  and  C_5 
REMARK    3  A    between atoms: O_10  and  C_9 
REMARK    4  A    between atoms: C_15  and  O_10 
ROOT
ATOM      1  N   UNL d   1     -47.798  12.982  22.680  0.00  0.00    -0.268 N 
ATOM      2  C   UNL d   1     -47.951  12.533  23.364  0.00  0.00     0.296 A 
ATOM      3  S   UNL d   1     -47.228  12.259  23.650  0.00  0.00    -0.025 SA
ATOM      4  C   UNL d   1     -46.981  12.980  22.552  0.00  0.00     0.073 A 
ATOM      5  C   UNL d   1     -46.631  12.532  23.154  0.00  0.00     0.050 A 
ATOM      6  O   UNL d   1     -48.693  12.389  23.694  0.00  0.00    -0.259 OA
ATOM      7  C   UNL d   1     -46.518  13.327  21.970  0.00  0.00     0.018 A 
ATOM      8  C   UNL d   1     -45.803  12.436  23.163  0.00  0.00     0.008 A 
ATOM      9  C   UNL d   1     -45.700  13.229  21.982  0.00  0.00     0.002 A 
ATOM     10  C   UNL d   1     -45.345  12.788  22.574  0.00  0.00     0.001 A 
ENDROOT
BRANCH   1  11
ATOM     11  C   UNL d   1     -48.360  13.361  22.214  0.00  0.00     0.086 C 
BRANCH  11  12
ATOM     12  C   UNL d   1     -48.684  14.079  22.466  0.00  0.00     0.040 A 
ATOM     13  C   UNL d   1     -49.432  14.291  22.206  0.00  0.00     0.102 A 
ATOM     14  C   UNL d   1     -49.755  15.000  22.454  0.00  0.00     0.025 A 
ATOM     15  C   UNL d   1     -49.330  15.503  22.966  0.00  0.00     0.002 A 
ATOM     16  C   UNL d   1     -48.579  15.278  23.220  0.00  0.00     0.000 A 
ATOM     17  C   UNL d   1     -48.255  14.560  22.968  0.00  0.00     0.004 A 
BRANCH  13  18
ATOM     18  O   UNL d   1     -49.827  13.775  21.702  0.00  0.00    -0.305 OA
BRANCH  18  19
ATOM     19  C   UNL d   1     -50.623  13.905  21.517  0.00  0.00     0.123 C 
ATOM     20  C   UNL d   1     -51.043  13.335  21.086  0.00  0.00     0.029 C 
ENDBRANCH  18  19
ENDBRANCH  13  18
ENDBRANCH  11  12
ENDBRANCH   1  11
TORSDOF 4
ENDMDL
MODEL 9
REMARK VINA RESULT:      -6.0      8.849     10.170
REMARK  4 active torsions:
REMARK  status: ('A' for Active; 'I' for Inactive)
REMARK    1  A    between atoms: C_5  and  N_1 
REMARK    2  A    between atoms: C_7  and  C_5 
REMARK    3  A    between atoms: O_10  and  C_9 
REMARK    4  A    between atoms: C_15  and  O_10 
ROOT
ATOM      1  N   UNL d   1     -39.779  14.587  18.574  0.00  0.00    -0.268 N 
ATOM      2  C   UNL d   1     -40.397  14.344  18.074  0.00  0.00     0.296 A 
ATOM      3  S   UNL d   1     -40.238  14.638  17.319  0.00  0.00    -0.025 SA
ATOM      4  C   UNL d   1     -39.243  15.028  18.122  0.00  0.00     0.073 A 
ATOM      5  C   UNL d   1     -39.531  15.057  17.347  0.00  0.00     0.050 A 
ATOM      6  O   UNL d   1     -41.050  13.893  18.294  0.00  0.00    -0.259 OA
ATOM      7  C   UNL d   1     -38.540  15.402  18.319  0.00  0.00     0.018 A 
ATOM      8  C   UNL d   1     -39.098  15.470  16.766  0.00  0.00     0.008 A 
ATOM      9  C   UNL d   1     -38.115  15.809  17.742  0.00  0.00     0.002 A 
ATOM     10  C   UNL d   1     -38.391  15.843  16.972  0.00  0.00     0.001 A 
ENDROOT
BRANCH   1  11
ATOM     11  C   UNL d   1     -39.710  14.419  19.377  0.00  0.00     0.086 C 
BRANCH  11  12
ATOM     12  C   UNL d   1     -40.115  14.884  19.928  0.00  0.00     0.040 A 
ATOM     13  C   UNL d   1     -39.982  14.760  20.728  0.00  0.00     0.102 A 
ATOM     14  C   UNL d   1     -40.382  15.218  21.274  0.00  0.00     0.025 A 
ATOM     15  C   UNL d   1     -40.918  15.805  21.024  0.00  0.00     0.002 A 
ATOM     16  C   UNL d   1     -41.043  15.920  20.218  0.00  0.00     0.000 A 
ATOM     17  C   UNL d   1     -40.637  15.455  19.666  0.00  0.00     0.004 A 
BRANCH  13  18
ATOM     18  O   UNL d   1     -39.447  14.174  20.945  0.00  0.00    -0.305 OA
BRANCH  18  19
ATOM     19  C   UNL d   1     -39.323  14.003  21.744  0.00  0.00     0.123 C 
ATOM     20  C   UNL d   1     -38.722  13.476  21.962  0.00  0.00     0.029 C 
ENDBRANCH  18  19
ENDBRANCH  13  18
ENDBRANCH  11  12
ENDBRANCH   1  11
TORSDOF 4
ENDMDL
