MODEL 1
REMARK VINA RESULT:      60.6      0.000      0.000
REMARK  5 active torsions:
REMARK  status: ('A' for Active; 'I' for Inactive)
REMARK    1  A    between atoms: N_2  and  S_1 
REMARK    2  A    between atoms: C_6  and  S_1 
REMARK       I    between atoms: C_3  and  N_4 
REMARK    3  A    between atoms: C_5  and  C_3 
REMARK    4  A    between atoms: O_20  and  C_21 
REMARK    5  A    between atoms: C_24  and  O_20 
ROOT
ATOM      1  S   UNL d   1      46.284 -19.326  40.009  0.00  0.00     0.271 S 
ATOM      2  O   UNL d   1      46.647 -20.036  40.212  0.00  0.00    -0.200 OA
ATOM      3  O   UNL d   1      46.228 -19.578  39.228  0.00  0.00    -0.200 OA
ENDROOT
BRANCH   1   4
ATOM      4  N   UNL d   1      46.338 -19.070  40.792  0.00  0.00    -0.226 N 
ATOM      5  C   UNL d   1      46.253 -19.600  41.410  0.00  0.00     0.111 A 
ATOM      6  C   UNL d   1      46.308 -19.342  42.190  0.00  0.00     0.103 A 
ATOM      7  N   UNL d   1      46.449 -18.546  42.341  0.00  0.00    -0.267 N 
ATOM      8  C   UNL d   1      46.504 -18.288  43.121  0.00  0.00     0.288 C 
ATOM      9  C   UNL d   1      46.536 -18.011  41.729  0.00  0.00     0.103 A 
ATOM     10  O   UNL d   1      46.646 -17.493  43.285  0.00  0.00    -0.264 OA
ATOM     11  C   UNL d   1      46.482 -18.266  40.946  0.00  0.00     0.111 A 
BRANCH   8  12
ATOM     12  C   UNL d   1      46.418 -18.824  43.745  0.00  0.00     0.156 A 
ATOM     13  O   UNL d   1      46.205 -18.644  44.525  0.00  0.00    -0.300 OA
ATOM     14  C   UNL d   1      46.186 -19.342  44.955  0.00  0.00     0.123 A 
ATOM     15  C   UNL d   1      46.387 -19.965  44.450  0.00  0.00     0.029 A 
ATOM     16  C   UNL d   1      46.530 -19.639  43.700  0.00  0.00     0.032 A 
ENDBRANCH   8  12
ENDBRANCH   1   4
BRANCH   1  17
ATOM     17  C   UNL d   1      45.920 -18.615  39.802  0.00  0.00     0.104 A 
ATOM     18  C   UNL d   1      45.163 -18.430  40.078  0.00  0.00     0.015 A 
ATOM     19  C   UNL d   1      44.807 -17.721  39.868  0.00  0.00     0.025 A 
ATOM     20  C   UNL d   1      45.204 -17.192  39.383  0.00  0.00     0.100 A 
ATOM     21  C   UNL d   1      45.961 -17.367  39.102  0.00  0.00     0.025 A 
ATOM     22  C   UNL d   1      46.321 -18.077  39.310  0.00  0.00     0.015 A 
BRANCH  20  23
ATOM     23  O   UNL d   1      44.840 -16.474  39.172  0.00  0.00    -0.307 OA
BRANCH  23  24
ATOM     24  C   UNL d   1      44.824 -16.241  38.377  0.00  0.00     0.100 A 
ATOM     25  C   UNL d   1      44.226 -16.514  37.868  0.00  0.00     0.025 A 
ATOM     26  C   UNL d   1      44.217 -16.277  37.078  0.00  0.00     0.002 A 
ATOM     27  C   UNL d   1      44.802 -15.769  36.793  0.00  0.00     0.000 A 
ATOM     28  C   UNL d   1      45.399 -15.496  37.302  0.00  0.00     0.002 A 
ATOM     29  C   UNL d   1      45.409 -15.733  38.093  0.00  0.00     0.025 A 
ENDBRANCH  23  24
ENDBRANCH  20  23
ENDBRANCH   1  17
TORSDOF 5
ENDMDL
