MODEL 1
REMARK VINA RESULT:       9.0      0.000      0.000
REMARK  5 active torsions:
REMARK  status: ('A' for Active; 'I' for Inactive)
REMARK       I    between atoms: C_4  and  N_1 
REMARK    1  A    between atoms: C_8  and  C_3 
REMARK    2  A    between atoms: C_9  and  C_4 
REMARK    3  A    between atoms: S_5  and  N_10 
REMARK    4  A    between atoms: C_11  and  C_6 
REMARK    5  A    between atoms: N_10  and  C_22 
ROOT
ATOM      1  N   UNL d   1     -42.742-122.655 -50.188  0.00  0.00    -0.193 N 
ATOM      2  N   UNL d   1     -42.769-122.570 -51.011  0.00  0.00    -0.163 NA
ATOM      3  C   UNL d   1     -41.960-122.840 -49.981  0.00  0.00     0.090 A 
ATOM      4  C   UNL d   1     -43.381-122.569 -49.674  0.00  0.00     0.303 C 
ATOM      5  C   UNL d   1     -42.013-122.701 -51.310  0.00  0.00     0.103 A 
ATOM      6  C   UNL d   1     -41.517-122.867 -50.672  0.00  0.00     0.040 A 
ATOM      7  O   UNL d   1     -43.262-122.672 -48.861  0.00  0.00    -0.263 OA
ENDROOT
BRANCH   5   8
ATOM      8  C   UNL d   1     -41.792-122.672 -52.101  0.00  0.00     0.019 A 
ATOM      9  C   UNL d   1     -41.550-123.355 -52.481  0.00  0.00     0.003 A 
ATOM     10  C   UNL d   1     -41.328-123.325 -53.278  0.00  0.00     0.020 A 
ATOM     11  C   UNL d   1     -41.352-122.607 -53.690  0.00  0.00     0.093 A 
ATOM     12  C   UNL d   1     -41.598-121.922 -53.299  0.00  0.00     0.020 A 
ATOM     13  C   UNL d   1     -41.817-121.950 -52.511  0.00  0.00     0.003 A 
BRANCH  11  14
ATOM     14  N   UNL d   1     -41.129-122.586 -54.482  0.00  0.00    -0.162 NA
BRANCH  14  15
ATOM     15  S   UNL d   1     -41.612-122.242 -55.046  0.00  0.00     0.266 S 
ATOM     16  O   UNL d   1     -41.135-121.587 -54.877  0.00  0.00    -0.203 OA
ATOM     17  O   UNL d   1     -41.895-121.638 -55.534  0.00  0.00    -0.203 OA
ATOM     18  C   UNL d   1     -42.099-122.878 -55.232  0.00  0.00     0.165 C 
ENDBRANCH  14  15
ENDBRANCH  11  14
ENDBRANCH   5   8
BRANCH   3  19
ATOM     19  C   UNL d   1     -41.687-122.971 -49.222  0.00  0.00     0.045 A 
ATOM     20  C   UNL d   1     -41.421-122.314 -48.776  0.00  0.00     0.141 A 
ATOM     21  F   UNL d   1     -41.438-121.558 -49.109  0.00  0.00    -0.204 F 
ATOM     22  C   UNL d   1     -41.143-122.436 -48.004  0.00  0.00     0.030 A 
ATOM     23  C   UNL d   1     -41.132-123.158 -47.701  0.00  0.00     0.002 A 
ATOM     24  C   UNL d   1     -41.399-123.815 -48.146  0.00  0.00     0.000 A 
ATOM     25  C   UNL d   1     -41.684-123.760 -48.911  0.00  0.00     0.004 A 
ENDBRANCH   3  19
BRANCH   4  26
ATOM     26  C   UNL d   1     -44.117-122.386 -49.965  0.00  0.00     0.158 A 
ATOM     27  O   UNL d   1     -44.349-121.644 -50.288  0.00  0.00    -0.300 OA
ATOM     28  C   UNL d   1     -45.141-121.710 -50.512  0.00  0.00     0.123 A 
ATOM     29  C   UNL d   1     -45.397-122.469 -50.333  0.00  0.00     0.029 A 
ATOM     30  C   UNL d   1     -44.756-122.873 -49.997  0.00  0.00     0.032 A 
ENDBRANCH   4  26
TORSDOF 5
ENDMDL
MODEL 2
REMARK VINA RESULT:       9.4      2.308      5.061
REMARK  5 active torsions:
REMARK  status: ('A' for Active; 'I' for Inactive)
REMARK       I    between atoms: C_4  and  N_1 
REMARK    1  A    between atoms: C_8  and  C_3 
REMARK    2  A    between atoms: C_9  and  C_4 
REMARK    3  A    between atoms: S_5  and  N_10 
REMARK    4  A    between atoms: C_11  and  C_6 
REMARK    5  A    between atoms: N_10  and  C_22 
ROOT
ATOM      1  N   UNL d   1     -41.719-121.631 -52.404  0.00  0.00    -0.193 N 
ATOM      2  N   UNL d   1     -41.636-121.715 -51.585  0.00  0.00    -0.163 NA
ATOM      3  C   UNL d   1     -41.906-122.378 -52.714  0.00  0.00     0.090 A 
ATOM      4  C   UNL d   1     -41.630-120.929 -52.827  0.00  0.00     0.303 C 
ATOM      5  C   UNL d   1     -41.771-122.505 -51.390  0.00  0.00     0.103 A 
ATOM      6  C   UNL d   1     -41.937-122.909 -52.090  0.00  0.00     0.040 A 
ATOM      7  O   UNL d   1     -41.731-120.937 -53.649  0.00  0.00    -0.263 OA
ENDROOT
BRANCH   5   8
ATOM      8  C   UNL d   1     -41.744-122.829 -50.636  0.00  0.00     0.019 A 
ATOM      9  C   UNL d   1     -41.229-123.445 -50.477  0.00  0.00     0.003 A 
ATOM     10  C   UNL d   1     -41.202-123.772 -49.717  0.00  0.00     0.020 A 
ATOM     11  C   UNL d   1     -41.695-123.478 -49.120  0.00  0.00     0.093 A 
ATOM     12  C   UNL d   1     -42.212-122.856 -49.289  0.00  0.00     0.020 A 
ATOM     13  C   UNL d   1     -42.240-122.532 -50.039  0.00  0.00     0.003 A 
BRANCH  11  14
ATOM     14  N   UNL d   1     -41.662-123.809 -48.367  0.00  0.00    -0.162 NA
BRANCH  14  15
ATOM     15  S   UNL d   1     -42.019-123.441 -47.729  0.00  0.00     0.266 S 
ATOM     16  O   UNL d   1     -41.247-123.164 -47.614  0.00  0.00    -0.203 OA
ATOM     17  O   UNL d   1     -42.059-122.967 -47.053  0.00  0.00    -0.203 OA
ATOM     18  C   UNL d   1     -42.792-123.703 -47.821  0.00  0.00     0.165 C 
ENDBRANCH  14  15
ENDBRANCH  11  14
ENDBRANCH   5   8
BRANCH   3  19
ATOM     19  C   UNL d   1     -42.036-122.545 -53.504  0.00  0.00     0.045 A 
ATOM     20  C   UNL d   1     -41.772-123.280 -53.803  0.00  0.00     0.141 A 
ATOM     21  F   UNL d   1     -41.392-123.815 -53.302  0.00  0.00    -0.204 F 
ATOM     22  C   UNL d   1     -41.899-123.459 -54.604  0.00  0.00     0.030 A 
ATOM     23  C   UNL d   1     -42.260-122.943 -55.068  0.00  0.00     0.002 A 
ATOM     24  C   UNL d   1     -42.524-122.207 -54.769  0.00  0.00     0.000 A 
ATOM     25  C   UNL d   1     -42.429-121.972 -53.991  0.00  0.00     0.004 A 
ENDBRANCH   3  19
BRANCH   4  26
ATOM     26  C   UNL d   1     -41.445-120.239 -52.439  0.00  0.00     0.158 A 
ATOM     27  O   UNL d   1     -41.345-119.484 -52.797  0.00  0.00    -0.300 OA
ATOM     28  C   UNL d   1     -41.162-118.949 -52.195  0.00  0.00     0.123 A 
ATOM     29  C   UNL d   1     -41.147-119.357 -51.484  0.00  0.00     0.029 A 
ATOM     30  C   UNL d   1     -41.323-120.150 -51.650  0.00  0.00     0.032 A 
ENDBRANCH   4  26
TORSDOF 5
ENDMDL
