MODEL 1
REMARK VINA RESULT:      -2.2      0.000      0.000
REMARK  4 active torsions:
REMARK  status: ('A' for Active; 'I' for Inactive)
REMARK    1  A    between atoms: N_6  and  C_1 
REMARK    2  A    between atoms: C_7  and  N_2 
REMARK       I    between atoms: C_8  and  N_6 
REMARK    3  A    between atoms: C_19  and  C_8 
REMARK    4  A    between atoms: O_20  and  C_15 
ROOT
ATOM      1  C   UNL d   1     -41.440-122.599 -51.659  0.00  0.00     0.169 A 
ATOM      2  N   UNL d   1     -41.760-123.269 -51.286  0.00  0.00    -0.212 N 
ATOM      3  N   UNL d   1     -41.915-123.817 -51.881  0.00  0.00    -0.163 NA
ATOM      4  C   UNL d   1     -41.407-122.751 -52.458  0.00  0.00     0.062 A 
ATOM      5  C   UNL d   1     -41.699-123.507 -52.619  0.00  0.00     0.111 A 
ATOM      6  S   UNL d   1     -41.352-122.995 -53.775  0.00  0.00    -0.084 SA
ATOM      7  C   UNL d   1     -41.181-122.417 -53.206  0.00  0.00     0.040 A 
ATOM      8  C   UNL d   1     -41.659-123.647 -53.445  0.00  0.00     0.056 A 
ENDROOT
BRANCH   2   9
ATOM      9  C   UNL d   1     -41.892-123.365 -50.509  0.00  0.00     0.085 A 
ATOM     10  C   UNL d   1     -42.619-123.216 -50.195  0.00  0.00     0.021 A 
ATOM     11  C   UNL d   1     -42.764-123.314 -49.386  0.00  0.00     0.026 A 
ATOM     12  C   UNL d   1     -42.178-123.561 -48.893  0.00  0.00     0.094 A 
ATOM     13  C   UNL d   1     -41.433-123.715 -49.205  0.00  0.00     0.026 A 
ATOM     14  C   UNL d   1     -41.287-123.617 -50.013  0.00  0.00     0.021 A 
BRANCH  12  15
ATOM     15  O   UNL d   1     -42.277-123.660 -48.148  0.00  0.00    -0.328 OA
ATOM     16  C   UNL d   1     -42.376-122.925 -47.582  0.00  0.00     0.181 C 
ENDBRANCH  12  15
ENDBRANCH   2   9
BRANCH   1  17
ATOM     17  N   UNL d   1     -41.219-121.955 -51.284  0.00  0.00    -0.188 NA
ATOM     18  C   UNL d   1     -41.366-121.212 -51.600  0.00  0.00     0.292 C 
ATOM     19  O   UNL d   1     -41.760-121.166 -52.339  0.00  0.00    -0.264 OA
BRANCH  18  20
ATOM     20  C   UNL d   1     -41.123-120.541 -51.185  0.00  0.00     0.131 C 
ATOM     21 CL   UNL d   1     -41.146-119.790 -51.511  0.00  0.00    -0.076 Cl
ENDBRANCH  18  20
ENDBRANCH   1  17
TORSDOF 4
ENDMDL
MODEL 2
REMARK VINA RESULT:      -1.8      2.051      3.819
REMARK  4 active torsions:
REMARK  status: ('A' for Active; 'I' for Inactive)
REMARK    1  A    between atoms: N_6  and  C_1 
REMARK    2  A    between atoms: C_7  and  N_2 
REMARK       I    between atoms: C_8  and  N_6 
REMARK    3  A    between atoms: C_19  and  C_8 
REMARK    4  A    between atoms: O_20  and  C_15 
ROOT
ATOM      1  C   UNL d   1     -42.152-122.824 -49.577  0.00  0.00     0.169 A 
ATOM      2  N   UNL d   1     -41.570-123.207 -50.032  0.00  0.00    -0.212 N 
ATOM      3  N   UNL d   1     -41.130-123.668 -49.509  0.00  0.00    -0.163 NA
ATOM      4  C   UNL d   1     -42.054-123.056 -48.803  0.00  0.00     0.062 A 
ATOM      5  C   UNL d   1     -41.421-123.583 -48.738  0.00  0.00     0.111 A 
ATOM      6  S   UNL d   1     -41.899-123.434 -47.526  0.00  0.00    -0.084 SA
ATOM      7  C   UNL d   1     -42.365-122.958 -48.018  0.00  0.00     0.040 A 
ATOM      8  C   UNL d   1     -41.334-123.812 -47.936  0.00  0.00     0.056 A 
ENDROOT
BRANCH   2   9
ATOM      9  C   UNL d   1     -41.459-123.143 -50.815  0.00  0.00     0.085 A 
ATOM     10  C   UNL d   1     -41.262-122.434 -51.145  0.00  0.00     0.021 A 
ATOM     11  C   UNL d   1     -41.145-122.359 -51.960  0.00  0.00     0.026 A 
ATOM     12  C   UNL d   1     -41.224-122.997 -52.445  0.00  0.00     0.094 A 
ATOM     13  C   UNL d   1     -41.425-123.724 -52.117  0.00  0.00     0.026 A 
ATOM     14  C   UNL d   1     -41.542-123.799 -51.302  0.00  0.00     0.021 A 
BRANCH  12  15
ATOM     15  O   UNL d   1     -41.124-122.963 -53.195  0.00  0.00    -0.328 OA
ATOM     16  C   UNL d   1     -41.609-122.355 -53.711  0.00  0.00     0.181 C 
ENDBRANCH  12  15
ENDBRANCH   2   9
BRANCH   1  17
ATOM     17  N   UNL d   1     -42.681-122.336 -49.868  0.00  0.00    -0.188 NA
ATOM     18  C   UNL d   1     -43.483-122.504 -49.817  0.00  0.00     0.292 C 
ATOM     19  O   UNL d   1     -43.715-123.217 -49.441  0.00  0.00    -0.264 OA
BRANCH  18  20
ATOM     20  C   UNL d   1     -44.028-121.971 -50.133  0.00  0.00     0.131 C 
ATOM     21 CL   UNL d   1     -44.796-122.188 -50.320  0.00  0.00    -0.076 Cl
ENDBRANCH  18  20
ENDBRANCH   1  17
TORSDOF 4
ENDMDL
MODEL 3
REMARK VINA RESULT:       0.8      0.876      1.097
REMARK  4 active torsions:
REMARK  status: ('A' for Active; 'I' for Inactive)
REMARK    1  A    between atoms: N_6  and  C_1 
REMARK    2  A    between atoms: C_7  and  N_2 
REMARK       I    between atoms: C_8  and  N_6 
REMARK    3  A    between atoms: C_19  and  C_8 
REMARK    4  A    between atoms: O_20  and  C_15 
ROOT
ATOM      1  C   UNL d   1     -41.350-122.561 -52.790  0.00  0.00     0.169 A 
ATOM      2  N   UNL d   1     -41.595-123.222 -52.348  0.00  0.00    -0.212 N 
ATOM      3  N   UNL d   1     -41.783-123.811 -52.891  0.00  0.00    -0.163 NA
ATOM      4  C   UNL d   1     -41.394-122.760 -53.578  0.00  0.00     0.062 A 
ATOM      5  C   UNL d   1     -41.663-123.537 -53.664  0.00  0.00     0.111 A 
ATOM      6  S   UNL d   1     -41.465-123.081 -54.878  0.00  0.00    -0.084 SA
ATOM      7  C   UNL d   1     -41.265-122.463 -54.363  0.00  0.00     0.040 A 
ATOM      8  C   UNL d   1     -41.703-123.725 -54.480  0.00  0.00     0.056 A 
ENDROOT
BRANCH   2   9
ATOM      9  C   UNL d   1     -41.639-123.276 -51.557  0.00  0.00     0.085 A 
ATOM     10  C   UNL d   1     -42.189-122.853 -51.146  0.00  0.00     0.021 A 
ATOM     11  C   UNL d   1     -42.241-122.904 -50.323  0.00  0.00     0.026 A 
ATOM     12  C   UNL d   1     -41.740-123.381 -49.910  0.00  0.00     0.094 A 
ATOM     13  C   UNL d   1     -41.176-123.816 -50.320  0.00  0.00     0.026 A 
ATOM     14  C   UNL d   1     -41.123-123.765 -51.144  0.00  0.00     0.021 A 
BRANCH  12  15
ATOM     15  O   UNL d   1     -41.761-123.451 -49.156  0.00  0.00    -0.328 OA
ATOM     16  C   UNL d   1     -42.441-123.046 -48.662  0.00  0.00     0.181 C 
ENDBRANCH  12  15
ENDBRANCH   2   9
BRANCH   1  17
ATOM     17  N   UNL d   1     -41.124-121.887 -52.478  0.00  0.00    -0.188 NA
ATOM     18  C   UNL d   1     -41.574-121.208 -52.568  0.00  0.00     0.292 C 
ATOM     19  O   UNL d   1     -42.287-121.261 -53.008  0.00  0.00    -0.264 OA
BRANCH  18  20
ATOM     20  C   UNL d   1     -41.315-120.502 -52.228  0.00  0.00     0.131 C 
ATOM     21 CL   UNL d   1     -41.168-119.829 -52.671  0.00  0.00    -0.076 Cl
ENDBRANCH  18  20
ENDBRANCH   1  17
TORSDOF 4
ENDMDL
