MODEL 1
REMARK VINA RESULT:      -5.1      0.000      0.000
REMARK  3 active torsions:
REMARK  status: ('A' for Active; 'I' for Inactive)
REMARK    1  A    between atoms: C_2  and  C_1 
REMARK    2  A    between atoms: N_12  and  C_6 
REMARK    3  A    between atoms: C_15  and  N_12 
ROOT
ATOM      1  C   UNL d   1     -42.157-122.425 -50.763  0.00  0.00     0.082 A 
ATOM      2  C   UNL d   1     -42.966-122.262 -50.681  0.00  0.00     0.302 A 
ATOM      3  C   UNL d   1     -41.714-122.714 -50.116  0.00  0.00     0.009 A 
ATOM      4  O   UNL d   1     -43.339-122.389 -49.949  0.00  0.00    -0.273 OA
ATOM      5  C   UNL d   1     -42.103-122.834 -49.393  0.00  0.00     0.025 A 
ATOM      6  C   UNL d   1     -42.908-122.672 -49.313  0.00  0.00     0.103 A 
ATOM      7  O   UNL d   1     -43.398-121.978 -51.317  0.00  0.00    -0.259 OA
ATOM      8  C   UNL d   1     -41.671-123.120 -48.750  0.00  0.00     0.026 A 
ATOM      9  C   UNL d   1     -43.276-122.800 -48.580  0.00  0.00     0.027 A 
ATOM     10  C   UNL d   1     -42.040-123.244 -48.029  0.00  0.00     0.094 A 
ATOM     11  C   UNL d   1     -42.845-123.084 -47.944  0.00  0.00     0.026 A 
ATOM     12  O   UNL d   1     -41.613-123.527 -47.393  0.00  0.00    -0.328 OA
ATOM     13  C   UNL d   1     -41.169-123.813 -46.759  0.00  0.00     0.181 C 
ENDROOT
BRANCH   1  14
ATOM     14  C   UNL d   1     -41.789-122.300 -51.484  0.00  0.00     0.095 A 
ATOM     15  N   UNL d   1     -41.725-122.844 -52.090  0.00  0.00    -0.221 NA
ATOM     16  C   UNL d   1     -41.316-122.489 -52.704  0.00  0.00     0.194 A 
ATOM     17  S   UNL d   1     -41.124-121.718 -52.478  0.00  0.00    -0.046 SA
ATOM     18  C   UNL d   1     -41.419-121.601 -51.718  0.00  0.00     0.058 A 
BRANCH  16  19
ATOM     19  N   UNL d   1     -41.126-122.831 -53.421  0.00  0.00    -0.221 NA
BRANCH  19  20
ATOM     20  C   UNL d   1     -41.578-122.666 -54.082  0.00  0.00     0.087 A 
ATOM     21  C   UNL d   1     -41.402-122.007 -54.547  0.00  0.00     0.061 A 
ATOM     22  C   UNL d   1     -41.854-121.840 -55.208  0.00  0.00     0.197 A 
ATOM     23  O   UNL d   1     -41.676-121.184 -55.668  0.00  0.00    -0.286 OA
ATOM     24  C   UNL d   1     -42.488-122.334 -55.411  0.00  0.00     0.042 A 
ATOM     25  C   UNL d   1     -42.661-122.986 -54.951  0.00  0.00     0.005 A 
ATOM     26  C   UNL d   1     -42.209-123.159 -54.282  0.00  0.00     0.019 A 
ENDBRANCH  19  20
ENDBRANCH  16  19
ENDBRANCH   1  14
TORSDOF 3
ENDMDL
