MODEL 1
REMARK VINA RESULT:      -0.5      0.000      0.000
REMARK  4 active torsions:
REMARK  status: ('A' for Active; 'I' for Inactive)
REMARK    1  A    between atoms: C_3  and  C_1 
REMARK       I    between atoms: N_8  and  C_3 
REMARK    2  A    between atoms: C_10  and  C_7 
REMARK    3  A    between atoms: C_9  and  N_8 
REMARK    4  A    between atoms: O_14  and  C_10 
ROOT
ATOM      1  C   UNL d   1     -42.926-123.116 -49.127  0.00  0.00     0.081 A 
ATOM      2  C   UNL d   1     -42.151-123.097 -49.402  0.00  0.00     0.090 A 
ATOM      3  C   UNL d   1     -43.072-123.127 -48.315  0.00  0.00     0.007 A 
ATOM      4  C   UNL d   1     -41.520-123.089 -48.869  0.00  0.00     0.019 A 
ATOM      5  C   UNL d   1     -42.442-123.119 -47.778  0.00  0.00     0.000 A 
ATOM      6  C   UNL d   1     -41.663-123.100 -48.061  0.00  0.00     0.002 A 
ENDROOT
BRANCH   2   7
ATOM      7  N   UNL d   1     -42.073-123.088 -50.219  0.00  0.00    -0.207 NA
ATOM      8  C   UNL d   1     -41.555-122.552 -50.571  0.00  0.00     0.287 C 
ATOM      9  O   UNL d   1     -41.123-122.031 -50.107  0.00  0.00    -0.265 OA
BRANCH   8  10
ATOM     10  C   UNL d   1     -41.470-122.535 -51.392  0.00  0.00     0.108 A 
ATOM     11  C   UNL d   1     -41.429-121.858 -51.864  0.00  0.00     0.094 A 
ATOM     12  N   UNL d   1     -41.343-122.102 -52.648  0.00  0.00    -0.219 NA
ATOM     13  C   UNL d   1     -41.467-121.081 -51.598  0.00  0.00     0.021 C 
ATOM     14  C   UNL d   1     -41.332-122.921 -52.657  0.00  0.00     0.215 A 
ATOM     15  S   UNL d   1     -41.410-123.190 -51.883  0.00  0.00    -0.041 SA
ATOM     16  N   UNL d   1     -41.256-123.400 -53.326  0.00  0.00    -0.120 N 
ENDBRANCH   8  10
ENDBRANCH   2   7
BRANCH   1  17
ATOM     17  C   UNL d   1     -43.553-123.124 -49.659  0.00  0.00     0.297 C 
ATOM     18  O   UNL d   1     -43.743-123.817 -50.051  0.00  0.00    -0.259 OA
BRANCH  17  19
ATOM     19  O   UNL d   1     -43.982-122.441 -49.790  0.00  0.00    -0.296 OA
ATOM     20  C   UNL d   1     -44.675-122.471 -50.239  0.00  0.00     0.185 C 
ENDBRANCH  17  19
ENDBRANCH   1  17
TORSDOF 4
ENDMDL
MODEL 2
REMARK VINA RESULT:       1.4      0.743      1.122
REMARK  4 active torsions:
REMARK  status: ('A' for Active; 'I' for Inactive)
REMARK    1  A    between atoms: C_3  and  C_1 
REMARK       I    between atoms: N_8  and  C_3 
REMARK    2  A    between atoms: C_10  and  C_7 
REMARK    3  A    between atoms: C_9  and  N_8 
REMARK    4  A    between atoms: O_14  and  C_10 
ROOT
ATOM      1  C   UNL d   1     -43.026-123.077 -49.098  0.00  0.00     0.081 A 
ATOM      2  C   UNL d   1     -42.316-123.030 -49.511  0.00  0.00     0.090 A 
ATOM      3  C   UNL d   1     -43.016-123.158 -48.276  0.00  0.00     0.007 A 
ATOM      4  C   UNL d   1     -41.595-123.063 -49.107  0.00  0.00     0.019 A 
ATOM      5  C   UNL d   1     -42.296-123.192 -47.869  0.00  0.00     0.000 A 
ATOM      6  C   UNL d   1     -41.584-123.144 -48.290  0.00  0.00     0.002 A 
ENDROOT
BRANCH   2   7
ATOM      7  N   UNL d   1     -42.392-122.950 -50.324  0.00  0.00    -0.207 NA
ATOM      8  C   UNL d   1     -41.818-122.537 -50.747  0.00  0.00     0.287 C 
ATOM      9  O   UNL d   1     -41.175-122.209 -50.357  0.00  0.00    -0.265 OA
BRANCH   8  10
ATOM     10  C   UNL d   1     -41.886-122.452 -51.565  0.00  0.00     0.108 A 
ATOM     11  C   UNL d   1     -41.591-122.971 -52.136  0.00  0.00     0.094 A 
ATOM     12  N   UNL d   1     -41.786-122.667 -52.878  0.00  0.00    -0.219 NA
ATOM     13  C   UNL d   1     -41.176-123.665 -51.988  0.00  0.00     0.021 C 
ATOM     14  C   UNL d   1     -42.198-121.969 -52.764  0.00  0.00     0.215 A 
ATOM     15  S   UNL d   1     -42.260-121.834 -51.955  0.00  0.00    -0.041 SA
ATOM     16  N   UNL d   1     -42.501-121.478 -53.357  0.00  0.00    -0.120 N 
ENDBRANCH   8  10
ENDBRANCH   2   7
BRANCH   1  17
ATOM     17  C   UNL d   1     -43.742-123.044 -49.500  0.00  0.00     0.297 C 
ATOM     18  O   UNL d   1     -44.112-122.322 -49.609  0.00  0.00    -0.259 OA
BRANCH  17  19
ATOM     19  O   UNL d   1     -44.077-123.731 -49.788  0.00  0.00    -0.296 OA
ATOM     20  C   UNL d   1     -44.889-123.762 -49.936  0.00  0.00     0.185 C 
ENDBRANCH  17  19
ENDBRANCH   1  17
TORSDOF 4
ENDMDL
MODEL 3
REMARK VINA RESULT:       2.4      1.787      3.993
REMARK  4 active torsions:
REMARK  status: ('A' for Active; 'I' for Inactive)
REMARK    1  A    between atoms: C_3  and  C_1 
REMARK       I    between atoms: N_8  and  C_3 
REMARK    2  A    between atoms: C_10  and  C_7 
REMARK    3  A    between atoms: C_9  and  N_8 
REMARK    4  A    between atoms: O_14  and  C_10 
ROOT
ATOM      1  C   UNL d   1     -41.630-122.584 -53.561  0.00  0.00     0.081 A 
ATOM      2  C   UNL d   1     -41.637-122.117 -52.884  0.00  0.00     0.090 A 
ATOM      3  C   UNL d   1     -41.588-122.226 -54.304  0.00  0.00     0.007 A 
ATOM      4  C   UNL d   1     -41.603-121.294 -52.944  0.00  0.00     0.019 A 
ATOM      5  C   UNL d   1     -41.554-121.401 -54.368  0.00  0.00     0.000 A 
ATOM      6  C   UNL d   1     -41.562-120.936 -53.682  0.00  0.00     0.002 A 
ENDROOT
BRANCH   2   7
ATOM      7  N   UNL d   1     -41.680-122.532 -52.177  0.00  0.00    -0.207 NA
ATOM      8  C   UNL d   1     -41.824-122.124 -51.475  0.00  0.00     0.287 C 
ATOM      9  O   UNL d   1     -41.925-121.310 -51.485  0.00  0.00    -0.265 OA
BRANCH   8  10
ATOM     10  C   UNL d   1     -41.869-122.532 -50.759  0.00  0.00     0.108 A 
ATOM     11  C   UNL d   1     -42.507-122.530 -50.235  0.00  0.00     0.094 A 
ATOM     12  N   UNL d   1     -42.310-123.012 -49.595  0.00  0.00    -0.219 NA
ATOM     13  C   UNL d   1     -43.212-122.118 -50.335  0.00  0.00     0.021 C 
ATOM     14  C   UNL d   1     -41.558-123.309 -49.725  0.00  0.00     0.215 A 
ATOM     15  S   UNL d   1     -41.284-123.014 -50.443  0.00  0.00    -0.041 SA
ATOM     16  N   UNL d   1     -41.141-123.817 -49.224  0.00  0.00    -0.120 N 
ENDBRANCH   8  10
ENDBRANCH   2   7
BRANCH   1  17
ATOM     17  C   UNL d   1     -41.664-123.403 -53.499  0.00  0.00     0.297 C 
ATOM     18  O   UNL d   1     -41.123-123.796 -53.027  0.00  0.00    -0.259 OA
BRANCH  17  19
ATOM     19  O   UNL d   1     -42.237-123.817 -53.909  0.00  0.00    -0.296 OA
ATOM     20  C   UNL d   1     -42.265-123.773 -54.733  0.00  0.00     0.185 C 
ENDBRANCH  17  19
ENDBRANCH   1  17
TORSDOF 4
ENDMDL
