MODEL 1
REMARK VINA RESULT:      -0.6      0.000      0.000
REMARK  5 active torsions:
REMARK  status: ('A' for Active; 'I' for Inactive)
REMARK    1  A    between atoms: C_7  and  C_2 
REMARK    2  A    between atoms: C_9  and  C_4 
REMARK    3  A    between atoms: C_16  and  C_7 
REMARK    4  A    between atoms: N_8  and  C_9 
REMARK    5  A    between atoms: C_23  and  C_14 
ROOT
ATOM      1  C   UNL d   1      31.222  17.010 -24.841  0.00  0.00     0.108 A 
ATOM      2  C   UNL d   1      32.444  17.546 -24.687  0.00  0.00     0.139 A 
ATOM      3  O   UNL d   1      31.632  17.726 -24.747  0.00  0.00    -0.304 OA
ATOM      4  C   UNL d   1      30.427  16.846 -24.927  0.00  0.00     0.079 A 
ATOM      5  C   UNL d   1      31.774  16.394 -24.839  0.00  0.00     0.064 A 
ATOM      6  C   UNL d   1      32.527  16.728 -24.744  0.00  0.00     0.220 A 
ATOM      7  C   UNL d   1      31.522  15.613 -24.923  0.00  0.00     0.009 A 
ATOM      8  C   UNL d   1      30.179  16.067 -25.010  0.00  0.00     0.199 A 
ATOM      9  O   UNL d   1      33.240  16.307 -24.712  0.00  0.00    -0.284 OA
ATOM     10  C   UNL d   1      30.725  15.453 -25.009  0.00  0.00     0.042 A 
ATOM     11  O   UNL d   1      29.376  15.902 -25.097  0.00  0.00    -0.286 OA
ENDROOT
BRANCH   2  12
ATOM     12  C   UNL d   1      33.055  18.094 -24.588  0.00  0.00     0.028 C 
BRANCH  12  13
ATOM     13  C   UNL d   1      33.046  18.613 -23.947  0.00  0.00     0.002 A 
ATOM     14  C   UNL d   1      33.192  18.332 -23.184  0.00  0.00     0.000 A 
ATOM     15  C   UNL d   1      33.183  18.851 -22.543  0.00  0.00     0.000 A 
ATOM     16  C   UNL d   1      33.027  19.652 -22.666  0.00  0.00     0.000 A 
ATOM     17  C   UNL d   1      32.880  19.934 -23.429  0.00  0.00     0.000 A 
ATOM     18  C   UNL d   1      32.890  19.414 -24.070  0.00  0.00     0.000 A 
BRANCH  16  19
ATOM     19  C   UNL d   1      33.017  20.172 -22.024  0.00  0.00     0.000 C 
ATOM     20  C   UNL d   1      33.122  20.982 -22.145  0.00  0.00     0.000 C 
ATOM     21  C   UNL d   1      32.902  19.879 -21.257  0.00  0.00     0.000 C 
ENDBRANCH  16  19
ENDBRANCH  12  13
ENDBRANCH   2  12
BRANCH   4  22
ATOM     22  C   UNL d   1      29.875  17.450 -24.930  0.00  0.00     0.086 C 
BRANCH  22  23
ATOM     23  N   UNL d   1      29.256  17.552 -24.398  0.00  0.00    -0.300 N 
ATOM     24  C   UNL d   1      29.127  16.999 -23.809  0.00  0.00     0.100 A 
ATOM     25  C   UNL d   1      28.513  17.094 -23.277  0.00  0.00     0.100 A 
ATOM     26  N   UNL d   1      28.029  17.753 -23.343  0.00  0.00    -0.299 N 
ATOM     27  C   UNL d   1      28.158  18.306 -23.933  0.00  0.00     0.100 A 
ATOM     28  C   UNL d   1      27.411  17.858 -22.816  0.00  0.00     0.100 C 
ATOM     29  C   UNL d   1      28.775  18.198 -24.457  0.00  0.00     0.100 A 
ENDBRANCH  22  23
ENDBRANCH   4  22
TORSDOF 5
ENDMDL
MODEL 2
REMARK VINA RESULT:      -0.3      1.283      1.977
REMARK  5 active torsions:
REMARK  status: ('A' for Active; 'I' for Inactive)
REMARK    1  A    between atoms: C_7  and  C_2 
REMARK    2  A    between atoms: C_9  and  C_4 
REMARK    3  A    between atoms: C_16  and  C_7 
REMARK    4  A    between atoms: N_8  and  C_9 
REMARK    5  A    between atoms: C_23  and  C_14 
ROOT
ATOM      1  C   UNL d   1      32.086  17.599 -24.001  0.00  0.00     0.108 A 
ATOM      2  C   UNL d   1      32.295  18.926 -23.973  0.00  0.00     0.139 A 
ATOM      3  O   UNL d   1      31.882  18.301 -23.606  0.00  0.00    -0.304 OA
ATOM      4  C   UNL d   1      31.855  16.825 -23.886  0.00  0.00     0.079 A 
ATOM      5  C   UNL d   1      32.618  17.788 -24.605  0.00  0.00     0.064 A 
ATOM      6  C   UNL d   1      32.745  18.607 -24.586  0.00  0.00     0.220 A 
ATOM      7  C   UNL d   1      32.917  17.194 -25.093  0.00  0.00     0.009 A 
ATOM      8  C   UNL d   1      32.155  16.235 -24.373  0.00  0.00     0.199 A 
ATOM      9  O   UNL d   1      33.241  19.029 -25.097  0.00  0.00    -0.284 OA
ATOM     10  C   UNL d   1      32.684  16.419 -24.975  0.00  0.00     0.042 A 
ATOM     11  O   UNL d   1      31.922  15.453 -24.256  0.00  0.00    -0.286 OA
ENDROOT
BRANCH   2  12
ATOM     12  C   UNL d   1      32.257  19.724 -23.758  0.00  0.00     0.028 C 
BRANCH  12  13
ATOM     13  C   UNL d   1      32.464  19.956 -22.994  0.00  0.00     0.002 A 
ATOM     14  C   UNL d   1      32.734  19.397 -22.449  0.00  0.00     0.000 A 
ATOM     15  C   UNL d   1      32.940  19.630 -21.685  0.00  0.00     0.000 A 
ATOM     16  C   UNL d   1      32.877  20.423 -21.466  0.00  0.00     0.000 A 
ATOM     17  C   UNL d   1      32.606  20.983 -22.011  0.00  0.00     0.000 A 
ATOM     18  C   UNL d   1      32.400  20.750 -22.775  0.00  0.00     0.000 A 
BRANCH  16  19
ATOM     19  C   UNL d   1      33.083  20.656 -20.702  0.00  0.00     0.000 C 
ATOM     20  C   UNL d   1      33.207  20.088 -20.115  0.00  0.00     0.000 C 
ATOM     21  C   UNL d   1      33.167  21.461 -20.523  0.00  0.00     0.000 C 
ENDBRANCH  16  19
ENDBRANCH  12  13
ENDBRANCH   2  12
BRANCH   4  22
ATOM     22  C   UNL d   1      31.329  16.630 -23.290  0.00  0.00     0.086 C 
BRANCH  22  23
ATOM     23  N   UNL d   1      30.535  16.437 -23.379  0.00  0.00    -0.300 N 
ATOM     24  C   UNL d   1      30.064  16.869 -23.890  0.00  0.00     0.100 A 
ATOM     25  C   UNL d   1      29.274  16.682 -23.984  0.00  0.00     0.100 A 
ATOM     26  N   UNL d   1      28.960  16.056 -23.558  0.00  0.00    -0.299 N 
ATOM     27  C   UNL d   1      29.431  15.623 -23.047  0.00  0.00     0.100 A 
ATOM     28  C   UNL d   1      28.169  15.860 -23.645  0.00  0.00     0.100 C 
ATOM     29  C   UNL d   1      30.220  15.821 -22.963  0.00  0.00     0.100 A 
ENDBRANCH  22  23
ENDBRANCH   4  22
TORSDOF 5
ENDMDL
MODEL 3
REMARK VINA RESULT:       0.8      2.499      5.152
REMARK  5 active torsions:
REMARK  status: ('A' for Active; 'I' for Inactive)
REMARK    1  A    between atoms: C_7  and  C_2 
REMARK    2  A    between atoms: C_9  and  C_4 
REMARK    3  A    between atoms: C_16  and  C_7 
REMARK    4  A    between atoms: N_8  and  C_9 
REMARK    5  A    between atoms: C_23  and  C_14 
ROOT
ATOM      1  C   UNL d   1      33.231  20.408 -23.033  0.00  0.00     0.108 A 
ATOM      2  C   UNL d   1      33.232  19.257 -23.726  0.00  0.00     0.139 A 
ATOM      3  O   UNL d   1      33.229  19.581 -22.957  0.00  0.00    -0.304 OA
ATOM      4  C   UNL d   1      33.228  21.005 -22.477  0.00  0.00     0.079 A 
ATOM      5  C   UNL d   1      33.235  20.593 -23.839  0.00  0.00     0.064 A 
ATOM      6  C   UNL d   1      33.236  19.881 -24.264  0.00  0.00     0.220 A 
ATOM      7  C   UNL d   1      33.238  21.381 -24.082  0.00  0.00     0.009 A 
ATOM      8  C   UNL d   1      33.231  21.789 -22.721  0.00  0.00     0.199 A 
ATOM      9  O   UNL d   1      33.241  19.813 -25.089  0.00  0.00    -0.284 OA
ATOM     10  C   UNL d   1      33.236  21.977 -23.522  0.00  0.00     0.042 A 
ATOM     11  O   UNL d   1      33.229  22.392 -22.158  0.00  0.00    -0.286 OA
ENDROOT
BRANCH   2  12
ATOM     12  C   UNL d   1      33.232  18.451 -23.911  0.00  0.00     0.028 C 
BRANCH  12  13
ATOM     13  C   UNL d   1      32.532  18.016 -23.865  0.00  0.00     0.002 A 
ATOM     14  C   UNL d   1      31.937  18.128 -24.426  0.00  0.00     0.000 A 
ATOM     15  C   UNL d   1      31.237  17.693 -24.379  0.00  0.00     0.000 A 
ATOM     16  C   UNL d   1      31.134  17.145 -23.771  0.00  0.00     0.000 A 
ATOM     17  C   UNL d   1      31.730  17.033 -23.209  0.00  0.00     0.000 A 
ATOM     18  C   UNL d   1      32.430  17.468 -23.256  0.00  0.00     0.000 A 
BRANCH  16  19
ATOM     19  C   UNL d   1      30.434  16.710 -23.724  0.00  0.00     0.000 C 
ATOM     20  C   UNL d   1      30.392  16.043 -23.238  0.00  0.00     0.000 C 
ATOM     21  C   UNL d   1      29.773  16.943 -24.166  0.00  0.00     0.000 C 
ENDBRANCH  16  19
ENDBRANCH  12  13
ENDBRANCH   2  12
BRANCH   4  22
ATOM     22  C   UNL d   1      33.224  20.830 -21.677  0.00  0.00     0.086 C 
BRANCH  22  23
ATOM     23  N   UNL d   1      32.839  21.250 -21.085  0.00  0.00    -0.300 N 
ATOM     24  C   UNL d   1      32.051  21.100 -20.922  0.00  0.00     0.100 A 
ATOM     25  C   UNL d   1      31.663  21.515 -20.334  0.00  0.00     0.100 A 
ATOM     26  N   UNL d   1      32.075  22.082 -19.909  0.00  0.00    -0.299 N 
ATOM     27  C   UNL d   1      32.863  22.232 -20.071  0.00  0.00     0.100 A 
ATOM     28  C   UNL d   1      31.695  22.503 -19.318  0.00  0.00     0.100 C 
ATOM     29  C   UNL d   1      33.239  21.810 -20.662  0.00  0.00     0.100 A 
ENDBRANCH  22  23
ENDBRANCH   4  22
TORSDOF 5
ENDMDL
MODEL 4
REMARK VINA RESULT:       1.8      2.998      5.749
REMARK  5 active torsions:
REMARK  status: ('A' for Active; 'I' for Inactive)
REMARK    1  A    between atoms: C_7  and  C_2 
REMARK    2  A    between atoms: C_9  and  C_4 
REMARK    3  A    between atoms: C_16  and  C_7 
REMARK    4  A    between atoms: N_8  and  C_9 
REMARK    5  A    between atoms: C_23  and  C_14 
ROOT
ATOM      1  C   UNL d   1      32.632  21.570 -21.557  0.00  0.00     0.108 A 
ATOM      2  C   UNL d   1      32.918  20.308 -21.917  0.00  0.00     0.139 A 
ATOM      3  O   UNL d   1      33.065  21.110 -22.096  0.00  0.00    -0.304 OA
ATOM      4  C   UNL d   1      32.562  22.378 -21.467  0.00  0.00     0.079 A 
ATOM      5  C   UNL d   1      32.223  21.060 -21.052  0.00  0.00     0.064 A 
ATOM      6  C   UNL d   1      32.401  20.282 -21.276  0.00  0.00     0.220 A 
ATOM      7  C   UNL d   1      31.743  21.366 -20.455  0.00  0.00     0.009 A 
ATOM      8  C   UNL d   1      32.083  22.681 -20.872  0.00  0.00     0.199 A 
ATOM      9  O   UNL d   1      32.107  19.597 -20.915  0.00  0.00    -0.284 OA
ATOM     10  C   UNL d   1      31.675  22.177 -20.367  0.00  0.00     0.042 A 
ATOM     11  O   UNL d   1      32.013  23.498 -20.781  0.00  0.00    -0.286 OA
ENDROOT
BRANCH   2  12
ATOM     12  C   UNL d   1      33.237  19.657 -22.316  0.00  0.00     0.028 C 
BRANCH  12  13
ATOM     13  C   UNL d   1      32.763  19.205 -22.816  0.00  0.00     0.002 A 
ATOM     14  C   UNL d   1      32.487  19.524 -23.526  0.00  0.00     0.000 A 
ATOM     15  C   UNL d   1      32.012  19.072 -24.027  0.00  0.00     0.000 A 
ATOM     16  C   UNL d   1      31.813  18.299 -23.816  0.00  0.00     0.000 A 
ATOM     17  C   UNL d   1      32.089  17.979 -23.106  0.00  0.00     0.000 A 
ATOM     18  C   UNL d   1      32.564  18.432 -22.606  0.00  0.00     0.000 A 
BRANCH  16  19
ATOM     19  C   UNL d   1      31.338  17.846 -24.317  0.00  0.00     0.000 C 
ATOM     20  C   UNL d   1      31.682  17.296 -24.828  0.00  0.00     0.000 C 
ATOM     21  C   UNL d   1      30.515  17.944 -24.307  0.00  0.00     0.000 C 
ENDBRANCH  16  19
ENDBRANCH  12  13
ENDBRANCH   2  12
BRANCH   4  22
ATOM     22  C   UNL d   1      32.964  22.890 -21.963  0.00  0.00     0.086 C 
BRANCH  22  23
ATOM     23  N   UNL d   1      32.766  23.079 -22.739  0.00  0.00    -0.300 N 
ATOM     24  C   UNL d   1      32.088  23.511 -22.894  0.00  0.00     0.100 A 
ATOM     25  C   UNL d   1      31.886  23.702 -23.663  0.00  0.00     0.100 A 
ATOM     26  N   UNL d   1      32.372  23.456 -24.275  0.00  0.00    -0.299 N 
ATOM     27  C   UNL d   1      33.050  23.024 -24.120  0.00  0.00     0.100 A 
ATOM     28  C   UNL d   1      32.179  23.642 -25.049  0.00  0.00     0.100 C 
ATOM     29  C   UNL d   1      33.241  22.839 -23.347  0.00  0.00     0.100 A 
ENDBRANCH  22  23
ENDBRANCH   4  22
TORSDOF 5
ENDMDL
