MODEL 1
REMARK VINA RESULT:      -3.1      0.000      0.000
REMARK  6 active torsions:
REMARK  status: ('A' for Active; 'I' for Inactive)
REMARK    1  A    between atoms: C_3  and  C_1 
REMARK    2  A    between atoms: C_4  and  N_2 
REMARK       I    between atoms: N_14  and  C_3 
REMARK    3  A    between atoms: N_5  and  C_19 
REMARK    4  A    between atoms: O_18  and  C_13 
REMARK    5  A    between atoms: C_17  and  N_14 
REMARK    6  A    between atoms: C_19  and  C_17 
ROOT
ATOM      1  N   UNL d   1      59.025  -0.371  29.891  0.00  0.00    -0.300 N 
ATOM      2  N   UNL d   1      57.884   0.323  30.858  0.00  0.00    -0.299 N 
ATOM      3  C   UNL d   1      59.160  -0.326  30.708  0.00  0.00     0.100 A 
ATOM      4  C   UNL d   1      58.329  -0.073  29.557  0.00  0.00     0.100 A 
ATOM      5  C   UNL d   1      58.580   0.025  31.192  0.00  0.00     0.100 A 
ATOM      6  C   UNL d   1      57.765   0.271  30.043  0.00  0.00     0.100 A 
ENDROOT
BRANCH   2   7
ATOM      7  C   UNL d   1      57.320   0.668  31.344  0.00  0.00     0.101 C 
BRANCH   7   8
ATOM      8  C   UNL d   1      56.778   0.211  31.752  0.00  0.00     0.121 C 
BRANCH   8   9
ATOM      9  N   UNL d   1      56.458   0.466  32.454  0.00  0.00    -0.205 NA
ATOM     10  C   UNL d   1      55.906  -0.005  32.847  0.00  0.00     0.280 C 
ATOM     11  O   UNL d   1      55.680  -0.725  32.532  0.00  0.00    -0.265 OA
BRANCH  10  12
ATOM     12  C   UNL d   1      55.581   0.254  33.560  0.00  0.00     0.065 A 
ATOM     13  C   UNL d   1      54.773   0.355  33.717  0.00  0.00     0.040 A 
ATOM     14  S   UNL d   1      54.705   0.621  34.495  0.00  0.00    -0.086 SA
ATOM     15  C   UNL d   1      55.446   0.682  34.811  0.00  0.00     0.036 A 
ATOM     16  C   UNL d   1      55.996   0.454  34.232  0.00  0.00     0.012 A 
ENDBRANCH  10  12
ENDBRANCH   8   9
ENDBRANCH   7   8
ENDBRANCH   2   7
BRANCH   1  17
ATOM     17  C   UNL d   1      59.600  -0.720  29.413  0.00  0.00     0.086 A 
ATOM     18  C   UNL d   1      59.506  -1.496  29.139  0.00  0.00     0.110 A 
ATOM     19  C   UNL d   1      60.084  -1.831  28.664  0.00  0.00     0.026 A 
ATOM     20  C   UNL d   1      60.760  -1.406  28.455  0.00  0.00     0.002 A 
ATOM     21  C   UNL d   1      60.854  -0.629  28.729  0.00  0.00     0.002 A 
ATOM     22  C   UNL d   1      60.281  -0.283  29.205  0.00  0.00     0.019 A 
BRANCH  18  23
ATOM     23  O   UNL d   1      58.840  -1.927  29.340  0.00  0.00    -0.327 OA
ATOM     24  C   UNL d   1      58.739  -2.700  29.056  0.00  0.00     0.181 C 
ENDBRANCH  18  23
ENDBRANCH   1  17
TORSDOF 6
ENDMDL
MODEL 2
REMARK VINA RESULT:      -3.0      2.067      5.701
REMARK  6 active torsions:
REMARK  status: ('A' for Active; 'I' for Inactive)
REMARK    1  A    between atoms: C_3  and  C_1 
REMARK    2  A    between atoms: C_4  and  N_2 
REMARK       I    between atoms: N_14  and  C_3 
REMARK    3  A    between atoms: N_5  and  C_19 
REMARK    4  A    between atoms: O_18  and  C_13 
REMARK    5  A    between atoms: C_17  and  N_14 
REMARK    6  A    between atoms: C_19  and  C_17 
ROOT
ATOM      1  N   UNL d   1      56.351   0.076  32.553  0.00  0.00    -0.300 N 
ATOM      2  N   UNL d   1      57.141  -0.289  31.152  0.00  0.00    -0.299 N 
ATOM      3  C   UNL d   1      56.732   0.682  32.134  0.00  0.00     0.100 A 
ATOM      4  C   UNL d   1      56.362  -0.704  32.279  0.00  0.00     0.100 A 
ATOM      5  C   UNL d   1      57.130   0.492  31.427  0.00  0.00     0.100 A 
ATOM      6  C   UNL d   1      56.756  -0.880  31.581  0.00  0.00     0.100 A 
ENDROOT
BRANCH   2   7
ATOM      7  C   UNL d   1      57.535  -0.464  30.455  0.00  0.00     0.101 C 
BRANCH   7   8
ATOM      8  C   UNL d   1      57.858  -1.204  30.327  0.00  0.00     0.121 C 
BRANCH   8   9
ATOM      9  N   UNL d   1      58.575  -1.290  29.955  0.00  0.00    -0.205 NA
ATOM     10  C   UNL d   1      58.793  -2.026  29.650  0.00  0.00     0.280 C 
ATOM     11  O   UNL d   1      58.289  -2.666  29.721  0.00  0.00    -0.265 OA
BRANCH  10  12
ATOM     12  C   UNL d   1      59.521  -2.114  29.272  0.00  0.00     0.065 A 
ATOM     13  C   UNL d   1      59.791  -2.799  28.892  0.00  0.00     0.040 A 
ATOM     14  S   UNL d   1      60.544  -2.636  28.596  0.00  0.00    -0.086 SA
ATOM     15  C   UNL d   1      60.734  -1.874  28.786  0.00  0.00     0.036 A 
ATOM     16  C   UNL d   1      60.100  -1.544  29.208  0.00  0.00     0.012 A 
ENDBRANCH  10  12
ENDBRANCH   8   9
ENDBRANCH   7   8
ENDBRANCH   2   7
BRANCH   1  17
ATOM     17  C   UNL d   1      55.958   0.265  33.254  0.00  0.00     0.086 A 
ATOM     18  C   UNL d   1      56.385   0.461  33.936  0.00  0.00     0.110 A 
ATOM     19  C   UNL d   1      55.983   0.647  34.627  0.00  0.00     0.026 A 
ATOM     20  C   UNL d   1      55.159   0.642  34.650  0.00  0.00     0.002 A 
ATOM     21  C   UNL d   1      54.731   0.447  33.967  0.00  0.00     0.002 A 
ATOM     22  C   UNL d   1      55.123   0.259  33.270  0.00  0.00     0.019 A 
BRANCH  18  23
ATOM     23  O   UNL d   1      57.204   0.468  33.924  0.00  0.00    -0.327 OA
ATOM     24  C   UNL d   1      57.631   0.681  34.603  0.00  0.00     0.181 C 
ENDBRANCH  18  23
ENDBRANCH   1  17
TORSDOF 6
ENDMDL
MODEL 3
REMARK VINA RESULT:      -0.1      9.151      9.561
REMARK  6 active torsions:
REMARK  status: ('A' for Active; 'I' for Inactive)
REMARK    1  A    between atoms: C_3  and  C_1 
REMARK    2  A    between atoms: C_4  and  N_2 
REMARK       I    between atoms: N_14  and  C_3 
REMARK    3  A    between atoms: N_5  and  C_19 
REMARK    4  A    between atoms: O_18  and  C_13 
REMARK    5  A    between atoms: C_17  and  N_14 
REMARK    6  A    between atoms: C_19  and  C_17 
ROOT
ATOM      1  N   UNL d   1      57.967  -9.723  30.911  0.00  0.00    -0.300 N 
ATOM      2  N   UNL d   1      58.317  -9.721  32.522  0.00  0.00    -0.299 N 
ATOM      3  C   UNL d   1      58.755  -9.818  31.154  0.00  0.00     0.100 A 
ATOM      4  C   UNL d   1      57.359  -9.627  31.464  0.00  0.00     0.100 A 
ATOM      5  C   UNL d   1      58.926  -9.816  31.970  0.00  0.00     0.100 A 
ATOM      6  C   UNL d   1      57.539  -9.627  32.264  0.00  0.00     0.100 A 
ENDROOT
BRANCH   2   7
ATOM      7  C   UNL d   1      58.497  -9.721  33.322  0.00  0.00     0.101 C 
BRANCH   7   8
ATOM      8  C   UNL d   1      59.255  -9.564  33.586  0.00  0.00     0.121 C 
BRANCH   8   9
ATOM      9  N   UNL d   1      59.387  -9.069  34.216  0.00  0.00    -0.205 NA
ATOM     10  C   UNL d   1      60.153  -8.809  34.381  0.00  0.00     0.280 C 
ATOM     11  O   UNL d   1      60.778  -9.049  33.910  0.00  0.00    -0.265 OA
BRANCH  10  12
ATOM     12  C   UNL d   1      60.287  -8.307  35.022  0.00  0.00     0.065 A 
ATOM     13  C   UNL d   1      59.717  -7.835  35.394  0.00  0.00     0.040 A 
ATOM     14  S   UNL d   1      60.096  -7.427  36.004  0.00  0.00    -0.086 SA
ATOM     15  C   UNL d   1      60.875  -7.641  36.009  0.00  0.00     0.036 A 
ATOM     16  C   UNL d   1      60.999  -8.189  35.399  0.00  0.00     0.012 A 
ENDBRANCH  10  12
ENDBRANCH   8   9
ENDBRANCH   7   8
ENDBRANCH   2   7
BRANCH   1  17
ATOM     17  C   UNL d   1      57.799  -9.724  30.103  0.00  0.00     0.086 A 
ATOM     18  C   UNL d   1      58.410  -9.676  29.545  0.00  0.00     0.110 A 
ATOM     19  C   UNL d   1      58.230  -9.679  28.745  0.00  0.00     0.026 A 
ATOM     20  C   UNL d   1      57.448  -9.729  28.488  0.00  0.00     0.002 A 
ATOM     21  C   UNL d   1      56.836  -9.777  29.046  0.00  0.00     0.002 A 
ATOM     22  C   UNL d   1      57.005  -9.775  29.849  0.00  0.00     0.019 A 
BRANCH  18  23
ATOM     23  O   UNL d   1      59.190  -9.627  29.790  0.00  0.00    -0.327 OA
ATOM     24  C   UNL d   1      59.805  -9.634  29.234  0.00  0.00     0.181 C 
ENDBRANCH  18  23
ENDBRANCH   1  17
TORSDOF 6
ENDMDL
