MODEL 1
REMARK VINA RESULT:      -6.6      0.000      0.000
REMARK  5 active torsions:
REMARK  status: ('A' for Active; 'I' for Inactive)
REMARK    1  A    between atoms: C_7  and  N_2 
REMARK    2  A    between atoms: C_15  and  C_7 
REMARK    3  A    between atoms: C_8  and  O_14 
REMARK    4  A    between atoms: O_17  and  C_9 
REMARK    5  A    between atoms: O_14  and  C_15 
ROOT
ATOM      1  C   UNL d   1     -48.706  13.003  23.337  0.00  0.00     0.110 C 
ENDROOT
BRANCH   1   2
ATOM      2  N   UNL d   1     -49.387  12.958  22.869  0.00  0.00    -0.266 N 
ATOM      3  C   UNL d   1     -49.718  12.296  22.490  0.00  0.00     0.296 A 
ATOM      4  S   UNL d   1     -50.403  12.546  22.090  0.00  0.00    -0.025 SA
ATOM      5  O   UNL d   1     -49.415  11.529  22.511  0.00  0.00    -0.259 OA
ATOM      6  C   UNL d   1     -50.491  13.359  22.224  0.00  0.00     0.050 A 
ATOM      7  C   UNL d   1     -51.064  13.910  21.971  0.00  0.00     0.008 A 
ATOM      8  C   UNL d   1     -49.869  13.613  22.702  0.00  0.00     0.074 A 
ATOM      9  C   UNL d   1     -51.008  14.700  22.197  0.00  0.00     0.001 A 
ATOM     10  C   UNL d   1     -50.384  14.950  22.675  0.00  0.00     0.002 A 
ATOM     11  C   UNL d   1     -49.816  14.411  22.927  0.00  0.00     0.018 A 
ENDBRANCH   1   2
BRANCH   1  12
ATOM     12  C   UNL d   1     -47.965  12.905  22.996  0.00  0.00     0.142 C 
BRANCH  12  13
ATOM     13  O   UNL d   1     -47.276  13.055  23.445  0.00  0.00    -0.304 OA
BRANCH  13  14
ATOM     14  C   UNL d   1     -46.532  12.921  23.108  0.00  0.00     0.100 A 
ATOM     15  C   UNL d   1     -46.210  13.467  22.599  0.00  0.00     0.027 A 
ATOM     16  C   UNL d   1     -45.466  13.334  22.262  0.00  0.00     0.026 A 
ATOM     17  C   UNL d   1     -45.053  12.642  22.447  0.00  0.00     0.094 A 
ATOM     18  C   UNL d   1     -45.393  12.094  22.967  0.00  0.00     0.026 A 
ATOM     19  C   UNL d   1     -46.129  12.236  23.294  0.00  0.00     0.027 A 
BRANCH  17  20
ATOM     20  O   UNL d   1     -44.315  12.504  22.117  0.00  0.00    -0.328 OA
ATOM     21  C   UNL d   1     -44.063  12.946  21.467  0.00  0.00     0.181 C 
ENDBRANCH  17  20
ENDBRANCH  13  14
ENDBRANCH  12  13
ENDBRANCH   1  12
TORSDOF 5
ENDMDL
MODEL 2
REMARK VINA RESULT:      -5.8      8.651      9.895
REMARK  5 active torsions:
REMARK  status: ('A' for Active; 'I' for Inactive)
REMARK    1  A    between atoms: C_7  and  N_2 
REMARK    2  A    between atoms: C_15  and  C_7 
REMARK    3  A    between atoms: C_8  and  O_14 
REMARK    4  A    between atoms: O_17  and  C_9 
REMARK    5  A    between atoms: O_14  and  C_15 
ROOT
ATOM      1  C   UNL d   1     -40.459  14.343  18.494  0.00  0.00     0.110 C 
ENDROOT
BRANCH   1   2
ATOM      2  N   UNL d   1     -40.140  14.581  17.768  0.00  0.00    -0.266 N 
ATOM      3  C   UNL d   1     -40.355  15.225  17.289  0.00  0.00     0.296 A 
ATOM      4  S   UNL d   1     -39.864  15.221  16.618  0.00  0.00    -0.025 SA
ATOM      5  O   UNL d   1     -40.953  15.769  17.455  0.00  0.00    -0.259 OA
ATOM      6  C   UNL d   1     -39.348  14.575  16.687  0.00  0.00     0.050 A 
ATOM      7  C   UNL d   1     -38.739  14.289  16.193  0.00  0.00     0.008 A 
ATOM      8  C   UNL d   1     -39.516  14.182  17.392  0.00  0.00     0.074 A 
ATOM      9  C   UNL d   1     -38.311  13.621  16.410  0.00  0.00     0.001 A 
ATOM     10  C   UNL d   1     -38.482  13.230  17.116  0.00  0.00     0.002 A 
ATOM     11  C   UNL d   1     -39.081  13.508  17.606  0.00  0.00     0.018 A 
ENDBRANCH   1   2
BRANCH   1  12
ATOM     12  C   UNL d   1     -40.279  14.758  19.180  0.00  0.00     0.142 C 
BRANCH  12  13
ATOM     13  O   UNL d   1     -40.554  14.483  19.919  0.00  0.00    -0.304 OA
BRANCH  13  14
ATOM     14  C   UNL d   1     -40.260  14.819  20.616  0.00  0.00     0.100 A 
ATOM     15  C   UNL d   1     -40.480  15.572  20.830  0.00  0.00     0.027 A 
ATOM     16  C   UNL d   1     -40.186  15.909  21.527  0.00  0.00     0.026 A 
ATOM     17  C   UNL d   1     -39.668  15.474  22.002  0.00  0.00     0.094 A 
ATOM     18  C   UNL d   1     -39.452  14.708  21.771  0.00  0.00     0.026 A 
ATOM     19  C   UNL d   1     -39.749  14.385  21.080  0.00  0.00     0.027 A 
BRANCH  17  20
ATOM     20  O   UNL d   1     -39.373  15.801  22.693  0.00  0.00    -0.328 OA
ATOM     21  C   UNL d   1     -38.561  15.922  22.781  0.00  0.00     0.181 C 
ENDBRANCH  17  20
ENDBRANCH  13  14
ENDBRANCH  12  13
ENDBRANCH   1  12
TORSDOF 5
ENDMDL
MODEL 3
REMARK VINA RESULT:      -5.4      8.749      9.395
REMARK  5 active torsions:
REMARK  status: ('A' for Active; 'I' for Inactive)
REMARK    1  A    between atoms: C_7  and  N_2 
REMARK    2  A    between atoms: C_15  and  C_7 
REMARK    3  A    between atoms: C_8  and  O_14 
REMARK    4  A    between atoms: O_17  and  C_9 
REMARK    5  A    between atoms: O_14  and  C_15 
ROOT
ATOM      1  C   UNL d   1     -40.459  14.257  19.159  0.00  0.00     0.110 C 
ENDROOT
BRANCH   1   2
ATOM      2  N   UNL d   1     -40.154  14.370  18.398  0.00  0.00    -0.266 N 
ATOM      3  C   UNL d   1     -39.509  13.995  18.032  0.00  0.00     0.296 A 
ATOM      4  S   UNL d   1     -39.432  14.308  17.265  0.00  0.00    -0.025 SA
ATOM      5  O   UNL d   1     -39.034  13.415  18.375  0.00  0.00    -0.259 OA
ATOM      6  C   UNL d   1     -40.029  14.874  17.162  0.00  0.00     0.050 A 
ATOM      7  C   UNL d   1     -40.230  15.366  16.519  0.00  0.00     0.008 A 
ATOM      8  C   UNL d   1     -40.473  14.913  17.857  0.00  0.00     0.074 A 
ATOM      9  C   UNL d   1     -40.866  15.885  16.578  0.00  0.00     0.001 A 
ATOM     10  C   UNL d   1     -41.308  15.922  17.274  0.00  0.00     0.002 A 
ATOM     11  C   UNL d   1     -41.114  15.439  17.911  0.00  0.00     0.018 A 
ENDBRANCH   1   2
BRANCH   1  12
ATOM     12  C   UNL d   1     -40.023  14.484  19.816  0.00  0.00     0.142 C 
BRANCH  12  13
ATOM     13  O   UNL d   1     -40.363  14.443  20.578  0.00  0.00    -0.304 OA
BRANCH  13  14
ATOM     14  C   UNL d   1     -39.926  14.692  21.236  0.00  0.00     0.100 A 
ATOM     15  C   UNL d   1     -39.514  14.150  21.681  0.00  0.00     0.027 A 
ATOM     16  C   UNL d   1     -39.077  14.398  22.338  0.00  0.00     0.026 A 
ATOM     17  C   UNL d   1     -39.062  15.200  22.538  0.00  0.00     0.094 A 
ATOM     18  C   UNL d   1     -39.486  15.741  22.075  0.00  0.00     0.026 A 
ATOM     19  C   UNL d   1     -39.915  15.485  21.428  0.00  0.00     0.027 A 
BRANCH  17  20
ATOM     20  O   UNL d   1     -38.631  15.453  23.188  0.00  0.00    -0.328 OA
ATOM     21  C   UNL d   1     -37.959  15.921  23.082  0.00  0.00     0.181 C 
ENDBRANCH  17  20
ENDBRANCH  13  14
ENDBRANCH  12  13
ENDBRANCH   1  12
TORSDOF 5
ENDMDL
