MODEL 1
REMARK VINA RESULT:      53.9      0.000      0.000
REMARK  4 active torsions:
REMARK  status: ('A' for Active; 'I' for Inactive)
REMARK    1  A    between atoms: S_3  and  N_1 
REMARK    2  A    between atoms: C_7  and  C_4 
REMARK    3  A    between atoms: C_10  and  C_5 
REMARK    4  A    between atoms: C_21  and  C_20 
ROOT
ATOM      1  N   UNL d   1     -58.162 -99.319 -44.321  0.00  0.00    -0.155 N 
ATOM      2  N   UNL d   1     -57.483 -99.320 -43.836  0.00  0.00    -0.153 NA
ATOM      3  C   UNL d   1     -56.850 -99.075 -44.298  0.00  0.00     0.126 A 
ATOM      4  C   UNL d   1     -57.937 -99.076 -45.062  0.00  0.00     0.096 A 
ATOM      5  C   UNL d   1     -57.147 -98.926 -45.062  0.00  0.00     0.043 A 
ENDROOT
BRANCH   4   6
ATOM      6  C   UNL d   1     -58.440 -98.997 -45.711  0.00  0.00     0.018 A 
ATOM      7  C   UNL d   1     -59.272 -98.948 -45.616  0.00  0.00     0.002 A 
ATOM      8  C   UNL d   1     -59.776 -98.869 -46.264  0.00  0.00     0.000 A 
ATOM      9  C   UNL d   1     -59.449 -98.838 -47.009  0.00  0.00     0.000 A 
ATOM     10  C   UNL d   1     -58.655 -98.882 -47.136  0.00  0.00     0.000 A 
ATOM     11  C   UNL d   1     -58.151 -98.961 -46.488  0.00  0.00     0.002 A 
BRANCH   9  12
ATOM     12  C   UNL d   1     -59.952 -98.759 -47.656  0.00  0.00     0.000 C 
ATOM     13  C   UNL d   1     -59.953 -99.333 -48.251  0.00  0.00     0.000 C 
ENDBRANCH   9  12
ENDBRANCH   4   6
BRANCH   1  14
ATOM     14  S   UNL d   1     -58.911 -99.535 -44.047  0.00  0.00     0.266 S 
ATOM     15  O   UNL d   1     -58.870-100.235 -44.491  0.00  0.00    -0.203 OA
ATOM     16  O   UNL d   1     -58.975 -98.853 -43.601  0.00  0.00    -0.203 OA
ATOM     17  C   UNL d   1     -59.654 -99.776 -43.791  0.00  0.00     0.165 C 
ENDBRANCH   1  14
BRANCH   3  18
ATOM     18  C   UNL d   1     -56.063 -98.991 -44.056  0.00  0.00     0.119 A 
ATOM     19  O   UNL d   1     -55.843 -98.828 -43.286  0.00  0.00    -0.304 OA
ATOM     20  C   UNL d   1     -54.998 -98.790 -43.289  0.00  0.00     0.123 A 
ATOM     21  C   UNL d   1     -54.748 -98.930 -44.058  0.00  0.00     0.029 A 
ATOM     22  C   UNL d   1     -55.392 -99.053 -44.529  0.00  0.00     0.028 A 
ENDBRANCH   3  18
TORSDOF 4
ENDMDL
