MODEL 1
REMARK VINA RESULT:      -1.9      0.000      0.000
REMARK  4 active torsions:
REMARK  status: ('A' for Active; 'I' for Inactive)
REMARK    1  A    between atoms: C_3  and  N_1 
REMARK    2  A    between atoms: C_6  and  C_3 
REMARK    3  A    between atoms: C_9  and  C_3 
REMARK    4  A    between atoms: N_5  and  C_6 
ROOT
ATOM      1  C   UNL d   1     -42.356-122.483 -50.066  0.00  0.00     0.106 C 
ENDROOT
BRANCH   1   2
ATOM      2  N   UNL d   1     -41.950-122.681 -50.758  0.00  0.00    -0.228 N 
ATOM      3  N   UNL d   1     -41.891-123.393 -51.182  0.00  0.00    -0.165 NA
ATOM      4  C   UNL d   1     -41.403-123.248 -51.833  0.00  0.00     0.103 A 
ATOM      5  C   UNL d   1     -41.193-123.817 -52.411  0.00  0.00     0.022 C 
ATOM      6  C   UNL d   1     -41.166-122.478 -51.818  0.00  0.00     0.040 A 
ATOM      7  C   UNL d   1     -41.501-122.120 -51.155  0.00  0.00     0.085 A 
ATOM      8  C   UNL d   1     -41.405-121.320 -50.918  0.00  0.00     0.021 C 
ENDBRANCH   1   2
BRANCH   1   9
ATOM      9  C   UNL d   1     -42.989-121.962 -50.105  0.00  0.00     0.167 C 
BRANCH   9  10
ATOM     10  N   UNL d   1     -43.748-122.220 -50.308  0.00  0.00    -0.111 N 
ATOM     11  O   UNL d   1     -44.028-122.950 -50.038  0.00  0.00    -0.532 OA
ATOM     12  O   UNL d   1     -44.223-121.739 -50.783  0.00  0.00    -0.532 OA
ENDBRANCH   9  10
ENDBRANCH   1   9
BRANCH   1  13
ATOM     13  C   UNL d   1     -42.115-122.815 -49.348  0.00  0.00     0.019 A 
ATOM     14  C   UNL d   1     -42.556-123.422 -49.022  0.00  0.00     0.002 A 
ATOM     15  C   UNL d   1     -42.333-123.771 -48.301  0.00  0.00     0.011 A 
ATOM     16  C   UNL d   1     -41.636-123.476 -47.921  0.00  0.00     0.058 A 
ATOM     17  C   UNL d   1     -41.213-122.880 -48.253  0.00  0.00     0.011 A 
ATOM     18 CL   UNL d   1     -41.378-123.794 -47.204  0.00  0.00    -0.082 Cl
ATOM     19  C   UNL d   1     -41.444-122.549 -48.959  0.00  0.00     0.002 A 
ENDBRANCH   1  13
TORSDOF 4
ENDMDL
MODEL 2
REMARK VINA RESULT:      -1.1      2.223      3.631
REMARK  4 active torsions:
REMARK  status: ('A' for Active; 'I' for Inactive)
REMARK    1  A    between atoms: C_3  and  N_1 
REMARK    2  A    between atoms: C_6  and  C_3 
REMARK    3  A    between atoms: C_9  and  C_3 
REMARK    4  A    between atoms: N_5  and  C_6 
ROOT
ATOM      1  C   UNL d   1     -41.635-122.203 -51.411  0.00  0.00     0.106 C 
ENDROOT
BRANCH   1   2
ATOM      2  N   UNL d   1     -42.179-122.429 -50.832  0.00  0.00    -0.228 N 
ATOM      3  N   UNL d   1     -43.008-122.381 -50.800  0.00  0.00    -0.165 NA
ATOM      4  C   UNL d   1     -43.242-122.698 -50.074  0.00  0.00     0.103 A 
ATOM      5  C   UNL d   1     -44.035-122.760 -49.812  0.00  0.00     0.022 C 
ATOM      6  C   UNL d   1     -42.589-122.936 -49.667  0.00  0.00     0.040 A 
ATOM      7  C   UNL d   1     -41.926-122.772 -50.130  0.00  0.00     0.085 A 
ATOM      8  C   UNL d   1     -41.126-122.925 -49.928  0.00  0.00     0.021 C 
ENDBRANCH   1   2
BRANCH   1   9
ATOM      9  C   UNL d   1     -41.123-121.579 -51.261  0.00  0.00     0.167 C 
BRANCH   9  10
ATOM     10  N   UNL d   1     -41.267-120.821 -51.559  0.00  0.00    -0.111 N 
ATOM     11  O   UNL d   1     -41.483-120.717 -52.351  0.00  0.00    -0.532 OA
ATOM     12  O   UNL d   1     -41.193-120.170 -51.056  0.00  0.00    -0.532 OA
ENDBRANCH   9  10
ENDBRANCH   1   9
BRANCH   1  13
ATOM     13  C   UNL d   1     -41.619-122.610 -52.130  0.00  0.00     0.019 A 
ATOM     14  C   UNL d   1     -41.205-123.314 -52.180  0.00  0.00     0.002 A 
ATOM     15  C   UNL d   1     -41.175-123.742 -52.893  0.00  0.00     0.011 A 
ATOM     16  C   UNL d   1     -41.587-123.422 -53.560  0.00  0.00     0.058 A 
ATOM     17  C   UNL d   1     -41.988-122.730 -53.496  0.00  0.00     0.011 A 
ATOM     18 CL   UNL d   1     -41.583-123.813 -54.287  0.00  0.00    -0.082 Cl
ATOM     19  C   UNL d   1     -42.008-122.324 -52.792  0.00  0.00     0.002 A 
ENDBRANCH   1  13
TORSDOF 4
ENDMDL
