MODEL 1
REMARK VINA RESULT:      -2.2      0.000      0.000
REMARK  3 active torsions:
REMARK  status: ('A' for Active; 'I' for Inactive)
REMARK    1  A    between atoms: C_12  and  C_4 
REMARK       I    between atoms: C_6  and  N_11 
REMARK    2  A    between atoms: C_7  and  C_6 
REMARK    3  A    between atoms: N_11  and  C_18 
ROOT
ATOM      1  C   UNL d   1      33.124  19.222 -22.841  0.00  0.00     0.019 A 
ATOM      2  C   UNL d   1      33.200  18.482 -22.482  0.00  0.00     0.003 A 
ATOM      3  C   UNL d   1      33.087  19.280 -23.654  0.00  0.00     0.003 A 
ATOM      4  C   UNL d   1      33.202  17.858 -23.759  0.00  0.00     0.085 A 
ATOM      5  C   UNL d   1      33.126  18.597 -24.114  0.00  0.00     0.019 A 
ATOM      6  C   UNL d   1      33.238  17.807 -22.938  0.00  0.00     0.019 A 
ENDROOT
BRANCH   1   7
ATOM      7  C   UNL d   1      33.084  19.910 -22.379  0.00  0.00     0.101 A 
ATOM      8  N   UNL d   1      33.241  20.652 -22.669  0.00  0.00    -0.221 NA
ATOM      9  C   UNL d   1      33.147  21.196 -22.058  0.00  0.00     0.179 A 
ATOM     10  N   UNL d   1      32.931  20.790 -21.382  0.00  0.00    -0.282 N 
ATOM     11  S   UNL d   1      33.191  21.999 -21.871  0.00  0.00    -0.048 SA
ATOM     12  C   UNL d   1      32.891  19.986 -21.581  0.00  0.00     0.101 A 
ATOM     13  C   UNL d   1      32.837  21.333 -20.770  0.00  0.00     0.089 A 
ATOM     14  C   UNL d   1      32.999  22.082 -21.079  0.00  0.00     0.057 A 
ENDBRANCH   1   7
BRANCH   4  15
ATOM     15  N   UNL d   1      33.241  17.170 -24.221  0.00  0.00    -0.208 NA
ATOM     16  C   UNL d   1      32.545  16.780 -24.441  0.00  0.00     0.279 C 
ATOM     17  O   UNL d   1      32.581  16.100 -24.897  0.00  0.00    -0.265 OA
BRANCH  16  18
ATOM     18  C   UNL d   1      31.818  17.081 -24.198  0.00  0.00     0.058 A 
ATOM     19  C   UNL d   1      31.127  16.651 -24.351  0.00  0.00     0.005 A 
ATOM     20  C   UNL d   1      31.083  17.380 -23.956  0.00  0.00     0.005 A 
ENDBRANCH  16  18
ENDBRANCH   4  15
TORSDOF 3
ENDMDL
MODEL 2
REMARK VINA RESULT:      -1.3      3.207      4.509
REMARK  3 active torsions:
REMARK  status: ('A' for Active; 'I' for Inactive)
REMARK    1  A    between atoms: C_12  and  C_4 
REMARK       I    between atoms: C_6  and  N_11 
REMARK    2  A    between atoms: C_7  and  C_6 
REMARK    3  A    between atoms: N_11  and  C_18 
ROOT
ATOM      1  C   UNL d   1      30.479  16.753 -24.455  0.00  0.00     0.019 A 
ATOM      2  C   UNL d   1      30.456  16.186 -23.855  0.00  0.00     0.003 A 
ATOM      3  C   UNL d   1      29.812  16.903 -24.901  0.00  0.00     0.003 A 
ATOM      4  C   UNL d   1      29.092  15.920 -24.153  0.00  0.00     0.085 A 
ATOM      5  C   UNL d   1      29.117  16.485 -24.750  0.00  0.00     0.019 A 
ATOM      6  C   UNL d   1      29.768  15.774 -23.706  0.00  0.00     0.019 A 
ENDROOT
BRANCH   1   7
ATOM      7  C   UNL d   1      31.177  17.174 -24.608  0.00  0.00     0.101 A 
ATOM      8  N   UNL d   1      31.228  17.983 -24.570  0.00  0.00    -0.221 NA
ATOM      9  C   UNL d   1      31.999  18.204 -24.755  0.00  0.00     0.179 A 
ATOM     10  N   UNL d   1      32.432  17.528 -24.911  0.00  0.00    -0.282 N 
ATOM     11  S   UNL d   1      32.501  18.855 -24.843  0.00  0.00    -0.048 SA
ATOM     12  C   UNL d   1      31.919  16.883 -24.819  0.00  0.00     0.101 A 
ATOM     13  C   UNL d   1      33.203  17.749 -25.096  0.00  0.00     0.089 A 
ATOM     14  C   UNL d   1      33.241  18.573 -25.053  0.00  0.00     0.057 A 
ENDBRANCH   1   7
BRANCH   4  15
ATOM     15  N   UNL d   1      28.394  15.499 -23.999  0.00  0.00    -0.208 NA
ATOM     16  C   UNL d   1      27.770  15.866 -23.599  0.00  0.00     0.279 C 
ATOM     17  O   UNL d   1      27.078  15.453 -23.446  0.00  0.00    -0.265 OA
BRANCH  16  18
ATOM     18  C   UNL d   1      27.848  16.649 -23.357  0.00  0.00     0.058 A 
ATOM     19  C   UNL d   1      27.299  16.970 -22.827  0.00  0.00     0.005 A 
ATOM     20  C   UNL d   1      27.923  17.438 -23.110  0.00  0.00     0.005 A 
ENDBRANCH  16  18
ENDBRANCH   4  15
TORSDOF 3
ENDMDL
MODEL 3
REMARK VINA RESULT:      -1.0      2.296      4.521
REMARK  3 active torsions:
REMARK  status: ('A' for Active; 'I' for Inactive)
REMARK    1  A    between atoms: C_12  and  C_4 
REMARK       I    between atoms: C_6  and  N_11 
REMARK    2  A    between atoms: C_7  and  C_6 
REMARK    3  A    between atoms: N_11  and  C_18 
ROOT
ATOM      1  C   UNL d   1      32.868  19.391 -22.866  0.00  0.00     0.019 A 
ATOM      2  C   UNL d   1      32.741  20.013 -23.395  0.00  0.00     0.003 A 
ATOM      3  C   UNL d   1      33.115  19.546 -22.104  0.00  0.00     0.003 A 
ATOM      4  C   UNL d   1      33.112  20.947 -22.390  0.00  0.00     0.085 A 
ATOM      5  C   UNL d   1      33.237  20.327 -21.865  0.00  0.00     0.019 A 
ATOM      6  C   UNL d   1      32.862  20.784 -23.158  0.00  0.00     0.019 A 
ENDROOT
BRANCH   1   7
ATOM      7  C   UNL d   1      32.746  18.606 -23.104  0.00  0.00     0.101 A 
ATOM      8  N   UNL d   1      33.149  17.976 -22.790  0.00  0.00    -0.221 NA
ATOM      9  C   UNL d   1      32.884  17.288 -23.157  0.00  0.00     0.179 A 
ATOM     10  N   UNL d   1      32.312  17.491 -23.705  0.00  0.00    -0.282 N 
ATOM     11  S   UNL d   1      32.981  16.467 -23.180  0.00  0.00    -0.048 SA
ATOM     12  C   UNL d   1      32.224  18.314 -23.673  0.00  0.00     0.101 A 
ATOM     13  C   UNL d   1      32.047  16.803 -24.073  0.00  0.00     0.089 A 
ATOM     14  C   UNL d   1      32.465  16.171 -23.743  0.00  0.00     0.057 A 
ENDBRANCH   1   7
BRANCH   4  15
ATOM     15  N   UNL d   1      33.234  21.733 -22.152  0.00  0.00    -0.208 NA
ATOM     16  C   UNL d   1      32.822  22.036 -21.502  0.00  0.00     0.279 C 
ATOM     17  O   UNL d   1      32.941  22.811 -21.264  0.00  0.00    -0.265 OA
BRANCH  16  18
ATOM     18  C   UNL d   1      32.293  21.553 -21.096  0.00  0.00     0.058 A 
ATOM     19  C   UNL d   1      31.855  21.865 -20.466  0.00  0.00     0.005 A 
ATOM     20  C   UNL d   1      31.758  21.070 -20.685  0.00  0.00     0.005 A 
ENDBRANCH  16  18
ENDBRANCH   4  15
TORSDOF 3
ENDMDL
MODEL 4
REMARK VINA RESULT:      -0.4      3.121      5.120
REMARK  3 active torsions:
REMARK  status: ('A' for Active; 'I' for Inactive)
REMARK    1  A    between atoms: C_12  and  C_4 
REMARK       I    between atoms: C_6  and  N_11 
REMARK    2  A    between atoms: C_7  and  C_6 
REMARK    3  A    between atoms: N_11  and  C_18 
ROOT
ATOM      1  C   UNL d   1      30.050  16.805 -24.261  0.00  0.00     0.019 A 
ATOM      2  C   UNL d   1      30.025  17.485 -24.730  0.00  0.00     0.003 A 
ATOM      3  C   UNL d   1      30.768  16.466 -24.070  0.00  0.00     0.003 A 
ATOM      4  C   UNL d   1      31.444  17.481 -24.816  0.00  0.00     0.085 A 
ATOM      5  C   UNL d   1      31.466  16.805 -24.349  0.00  0.00     0.019 A 
ATOM      6  C   UNL d   1      30.717  17.819 -25.004  0.00  0.00     0.019 A 
ENDROOT
BRANCH   1   7
ATOM      7  C   UNL d   1      29.349  16.463 -23.980  0.00  0.00     0.101 A 
ATOM      8  N   UNL d   1      28.659  16.444 -24.407  0.00  0.00    -0.221 NA
ATOM      9  C   UNL d   1      28.084  16.064 -23.956  0.00  0.00     0.179 A 
ATOM     10  N   UNL d   1      28.418  15.845 -23.243  0.00  0.00    -0.282 N 
ATOM     11  S   UNL d   1      27.294  15.821 -23.955  0.00  0.00    -0.048 SA
ATOM     12  C   UNL d   1      29.208  16.094 -23.255  0.00  0.00     0.101 A 
ATOM     13  C   UNL d   1      27.843  15.465 -22.791  0.00  0.00     0.089 A 
ATOM     14  C   UNL d   1      27.148  15.453 -23.238  0.00  0.00     0.057 A 
ENDBRANCH   1   7
BRANCH   4  15
ATOM     15  N   UNL d   1      32.146  17.824 -25.097  0.00  0.00    -0.208 NA
ATOM     16  C   UNL d   1      32.547  18.381 -24.635  0.00  0.00     0.279 C 
ATOM     17  O   UNL d   1      33.241  18.720 -24.910  0.00  0.00    -0.265 OA
BRANCH  16  18
ATOM     18  C   UNL d   1      32.245  18.590 -23.899  0.00  0.00     0.058 A 
ATOM     19  C   UNL d   1      32.712  19.029 -23.375  0.00  0.00     0.005 A 
ATOM     20  C   UNL d   1      31.945  18.804 -23.155  0.00  0.00     0.005 A 
ENDBRANCH  16  18
ENDBRANCH   4  15
TORSDOF 3
ENDMDL
MODEL 5
REMARK VINA RESULT:       0.6      5.017      5.921
REMARK  3 active torsions:
REMARK  status: ('A' for Active; 'I' for Inactive)
REMARK    1  A    between atoms: C_12  and  C_4 
REMARK       I    between atoms: C_6  and  N_11 
REMARK    2  A    between atoms: C_7  and  C_6 
REMARK    3  A    between atoms: N_11  and  C_18 
ROOT
ATOM      1  C   UNL d   1      32.515  23.481 -21.279  0.00  0.00     0.019 A 
ATOM      2  C   UNL d   1      33.207  23.699 -20.885  0.00  0.00     0.003 A 
ATOM      3  C   UNL d   1      31.856  23.254 -20.853  0.00  0.00     0.003 A 
ATOM      4  C   UNL d   1      32.575  23.461 -19.634  0.00  0.00     0.085 A 
ATOM      5  C   UNL d   1      31.887  23.244 -20.029  0.00  0.00     0.019 A 
ATOM      6  C   UNL d   1      33.236  23.689 -20.070  0.00  0.00     0.019 A 
ENDROOT
BRANCH   1   7
ATOM      7  C   UNL d   1      32.482  23.491 -22.107  0.00  0.00     0.101 A 
ATOM      8  N   UNL d   1      33.138  23.424 -22.581  0.00  0.00    -0.221 NA
ATOM      9  C   UNL d   1      32.896  23.455 -23.367  0.00  0.00     0.179 A 
ATOM     10  N   UNL d   1      32.083  23.543 -23.384  0.00  0.00    -0.282 N 
ATOM     11  S   UNL d   1      33.167  23.432 -24.148  0.00  0.00    -0.048 SA
ATOM     12  C   UNL d   1      31.823  23.565 -22.598  0.00  0.00     0.101 A 
ATOM     13  C   UNL d   1      31.840  23.574 -24.171  0.00  0.00     0.089 A 
ATOM     14  C   UNL d   1      32.516  23.505 -24.640  0.00  0.00     0.057 A 
ENDBRANCH   1   7
BRANCH   4  15
ATOM     15  N   UNL d   1      32.608  23.452 -18.805  0.00  0.00    -0.208 NA
ATOM     16  C   UNL d   1      32.837  22.762 -18.409  0.00  0.00     0.279 C 
ATOM     17  O   UNL d   1      32.870  22.750 -17.590  0.00  0.00    -0.265 OA
BRANCH  16  18
ATOM     18  C   UNL d   1      33.031  22.091 -18.843  0.00  0.00     0.058 A 
ATOM     19  C   UNL d   1      33.239  21.394 -18.447  0.00  0.00     0.005 A 
ATOM     20  C   UNL d   1      33.228  21.411 -19.276  0.00  0.00     0.005 A 
ENDBRANCH  16  18
ENDBRANCH   4  15
TORSDOF 3
ENDMDL
