MODEL 1
REMARK VINA RESULT:      28.9      0.000      0.000
REMARK  4 active torsions:
REMARK  status: ('A' for Active; 'I' for Inactive)
REMARK    1  A    between atoms: C_4  and  N_1 
REMARK    2  A    between atoms: S_8  and  C_5 
REMARK    3  A    between atoms: C_10  and  C_7 
REMARK    4  A    between atoms: C_9  and  S_8 
ROOT
ATOM      1  N   UNL d   1      45.533 -14.860  44.060  0.00  0.00    -0.241 N 
ATOM      2  C   UNL d   1      44.932 -15.306  44.398  0.00  0.00     0.268 A 
ATOM      3  C   UNL d   1      45.976 -15.353  43.565  0.00  0.00     0.273 A 
ATOM      4  C   UNL d   1      45.645 -16.104  43.599  0.00  0.00     0.091 A 
ATOM      5  C   UNL d   1      44.999 -16.079  44.113  0.00  0.00     0.072 A 
ATOM      6  O   UNL d   1      44.360 -15.033  44.928  0.00  0.00    -0.267 OA
ATOM      7  O   UNL d   1      46.632 -15.129  43.118  0.00  0.00    -0.266 OA
ENDROOT
BRANCH   1   8
ATOM      8  C   UNL d   1      45.669 -14.062  44.194  0.00  0.00     0.070 A 
ATOM      9  C   UNL d   1      45.316 -13.488  43.709  0.00  0.00     0.016 A 
ATOM     10  C   UNL d   1      45.457 -12.685  43.848  0.00  0.00     0.001 A 
ATOM     11  C   UNL d   1      44.828 -13.726  43.095  0.00  0.00     0.001 A 
ATOM     12  C   UNL d   1      45.108 -12.121  43.370  0.00  0.00     0.000 A 
ATOM     13  C   UNL d   1      45.945 -12.452  44.463  0.00  0.00     0.000 A 
ATOM     14  C   UNL d   1      44.614 -12.350  42.747  0.00  0.00     0.000 A 
ATOM     15  C   UNL d   1      44.475 -13.157  42.612  0.00  0.00     0.000 A 
ATOM     16  C   UNL d   1      46.302 -13.020  44.951  0.00  0.00     0.002 A 
ATOM     17  C   UNL d   1      46.162 -13.822  44.815  0.00  0.00     0.018 A 
ENDBRANCH   1   8
BRANCH   4  18
ATOM     18  S   UNL d   1      45.911 -16.774  43.189  0.00  0.00    -0.082 SA
BRANCH  18  19
ATOM     19  C   UNL d   1      46.039 -17.430  43.666  0.00  0.00     0.035 A 
ATOM     20  C   UNL d   1      46.069 -18.180  43.327  0.00  0.00     0.070 A 
ATOM     21  C   UNL d   1      46.198 -18.836  43.809  0.00  0.00     0.007 A 
ATOM     22  C   UNL d   1      46.296 -18.744  44.619  0.00  0.00     0.000 A 
ATOM     23  C   UNL d   1      46.265 -17.993  44.952  0.00  0.00     0.001 A 
ATOM     24  C   UNL d   1      46.138 -17.340  44.486  0.00  0.00     0.007 A 
BRANCH  20  25
ATOM     25  C   UNL d   1      45.971 -18.270  42.515  0.00  0.00     0.211 C 
ATOM     26  O   UNL d   1      46.627 -18.227  42.015  0.00  0.00    -0.644 OA
ATOM     27  O   UNL d   1      45.218 -18.404  42.204  0.00  0.00    -0.644 OA
ENDBRANCH  20  25
ENDBRANCH  18  19
ENDBRANCH   4  18
TORSDOF 4
ENDMDL
