MODEL 1
REMARK VINA RESULT:      -3.3      0.000      0.000
REMARK  6 active torsions:
REMARK  status: ('A' for Active; 'I' for Inactive)
REMARK    1  A    between atoms: C_3  and  S_1 
REMARK    2  A    between atoms: N_5  and  S_1 
REMARK    3  A    between atoms: S_2  and  N_6 
REMARK    4  A    between atoms: C_4  and  S_2 
REMARK    5  A    between atoms: O_25  and  C_15 
REMARK    6  A    between atoms: O_26  and  C_16 
ROOT
ATOM      1  N   UNL d   1      56.655   0.056  32.251  0.00  0.00    -0.226 N 
ATOM      2  N   UNL d   1      57.638  -0.250  30.966  0.00  0.00    -0.226 N 
ATOM      3  C   UNL d   1      56.896   0.681  31.769  0.00  0.00     0.111 A 
ATOM      4  C   UNL d   1      57.389  -0.869  31.456  0.00  0.00     0.111 A 
ATOM      5  C   UNL d   1      57.392   0.524  31.121  0.00  0.00     0.111 A 
ATOM      6  C   UNL d   1      56.900  -0.718  32.096  0.00  0.00     0.111 A 
ENDROOT
BRANCH   1   7
ATOM      7  S   UNL d   1      56.156   0.214  32.902  0.00  0.00     0.273 S 
ATOM      8  O   UNL d   1      55.452   0.633  32.781  0.00  0.00    -0.200 OA
ATOM      9  O   UNL d   1      56.361  -0.043  33.653  0.00  0.00    -0.200 OA
BRANCH   7  10
ATOM     10  C   UNL d   1      55.664   0.369  33.549  0.00  0.00     0.126 A 
ATOM     11  C   UNL d   1      55.991   0.528  34.283  0.00  0.00     0.106 A 
ATOM     12  C   UNL d   1      55.493   0.682  34.926  0.00  0.00     0.025 A 
ATOM     13  C   UNL d   1      54.673   0.675  34.826  0.00  0.00     0.002 A 
ATOM     14  C   UNL d   1      54.350   0.514  34.079  0.00  0.00     0.001 A 
ATOM     15  C   UNL d   1      54.840   0.361  33.441  0.00  0.00     0.015 A 
ATOM     16  C   UNL d   1      53.523   0.508  33.980  0.00  0.00     0.000 C 
BRANCH  11  17
ATOM     17  O   UNL d   1      56.806   0.534  34.384  0.00  0.00    -0.327 OA
ATOM     18  C   UNL d   1      57.126   0.626  35.140  0.00  0.00     0.181 C 
ENDBRANCH  11  17
ENDBRANCH   7  10
ENDBRANCH   1   7
BRANCH   2  19
ATOM     19  S   UNL d   1      58.132  -0.402  30.321  0.00  0.00     0.273 S 
ATOM     20  O   UNL d   1      58.933  -0.565  30.446  0.00  0.00    -0.200 OA
ATOM     21  O   UNL d   1      57.831  -0.393  29.553  0.00  0.00    -0.200 OA
BRANCH  19  22
ATOM     22  C   UNL d   1      58.651  -0.559  29.696  0.00  0.00     0.126 A 
ATOM     23  C   UNL d   1      58.662  -1.306  29.351  0.00  0.00     0.106 A 
ATOM     24  C   UNL d   1      59.176  -1.460  28.733  0.00  0.00     0.025 A 
ATOM     25  C   UNL d   1      59.681  -0.869  28.457  0.00  0.00     0.002 A 
ATOM     26  C   UNL d   1      59.667  -0.121  28.805  0.00  0.00     0.001 A 
ATOM     27  C   UNL d   1      59.145   0.027  29.429  0.00  0.00     0.015 A 
ATOM     28  C   UNL d   1      60.164   0.472  28.539  0.00  0.00     0.000 C 
BRANCH  23  29
ATOM     29  O   UNL d   1      58.157  -1.897  29.626  0.00  0.00    -0.327 OA
ATOM     30  C   UNL d   1      58.145  -2.633  29.254  0.00  0.00     0.181 C 
ENDBRANCH  23  29
ENDBRANCH  19  22
ENDBRANCH   2  19
TORSDOF 6
ENDMDL
MODEL 2
REMARK VINA RESULT:      -3.3      0.265      5.661
REMARK  6 active torsions:
REMARK  status: ('A' for Active; 'I' for Inactive)
REMARK    1  A    between atoms: C_3  and  S_1 
REMARK    2  A    between atoms: N_5  and  S_1 
REMARK    3  A    between atoms: S_2  and  N_6 
REMARK    4  A    between atoms: C_4  and  S_2 
REMARK    5  A    between atoms: O_25  and  C_15 
REMARK    6  A    between atoms: O_26  and  C_16 
ROOT
ATOM      1  N   UNL d   1      57.820  -0.209  30.955  0.00  0.00    -0.226 N 
ATOM      2  N   UNL d   1      56.779   0.074  32.198  0.00  0.00    -0.226 N 
ATOM      3  C   UNL d   1      57.696  -0.798  31.521  0.00  0.00     0.111 A 
ATOM      4  C   UNL d   1      56.911   0.657  31.626  0.00  0.00     0.111 A 
ATOM      5  C   UNL d   1      57.170  -0.652  32.147  0.00  0.00     0.111 A 
ATOM      6  C   UNL d   1      57.429   0.517  31.006  0.00  0.00     0.111 A 
ENDROOT
BRANCH   1   7
ATOM      7  S   UNL d   1      58.349  -0.356  30.326  0.00  0.00     0.273 S 
ATOM      8  O   UNL d   1      59.112  -0.629  30.493  0.00  0.00    -0.200 OA
ATOM      9  O   UNL d   1      58.116  -0.230  29.550  0.00  0.00    -0.200 OA
BRANCH   7  10
ATOM     10  C   UNL d   1      58.871  -0.500  29.700  0.00  0.00     0.126 A 
ATOM     11  C   UNL d   1      58.911  -1.247  29.364  0.00  0.00     0.106 A 
ATOM     12  C   UNL d   1      59.435  -1.383  28.738  0.00  0.00     0.025 A 
ATOM     13  C   UNL d   1      59.913  -0.771  28.456  0.00  0.00     0.002 A 
ATOM     14  C   UNL d   1      59.866  -0.019  28.802  0.00  0.00     0.001 A 
ATOM     15  C   UNL d   1      59.349   0.120  29.421  0.00  0.00     0.015 A 
ATOM     16  C   UNL d   1      60.348   0.597  28.516  0.00  0.00     0.000 C 
BRANCH  11  17
ATOM     17  O   UNL d   1      58.437  -1.856  29.643  0.00  0.00    -0.327 OA
ATOM     18  C   UNL d   1      58.308  -2.524  29.175  0.00  0.00     0.181 C 
ENDBRANCH  11  17
ENDBRANCH   7  10
ENDBRANCH   1   7
BRANCH   2  19
ATOM     19  S   UNL d   1      56.256   0.215  32.823  0.00  0.00     0.273 S 
ATOM     20  O   UNL d   1      56.519   0.618  33.496  0.00  0.00    -0.200 OA
ATOM     21  O   UNL d   1      55.474  -0.042  32.779  0.00  0.00    -0.200 OA
BRANCH  19  22
ATOM     22  C   UNL d   1      55.757   0.372  33.464  0.00  0.00     0.126 A 
ATOM     23  C   UNL d   1      56.080   0.521  34.206  0.00  0.00     0.106 A 
ATOM     24  C   UNL d   1      55.586   0.676  34.841  0.00  0.00     0.025 A 
ATOM     25  C   UNL d   1      54.768   0.682  34.736  0.00  0.00     0.002 A 
ATOM     26  C   UNL d   1      54.448   0.532  33.990  0.00  0.00     0.001 A 
ATOM     27  C   UNL d   1      54.953   0.376  33.354  0.00  0.00     0.015 A 
ATOM     28  C   UNL d   1      53.637   0.536  33.876  0.00  0.00     0.000 C 
BRANCH  23  29
ATOM     29  O   UNL d   1      56.898   0.515  34.311  0.00  0.00    -0.327 OA
ATOM     30  C   UNL d   1      57.217   0.648  35.060  0.00  0.00     0.181 C 
ENDBRANCH  23  29
ENDBRANCH  19  22
ENDBRANCH   2  19
TORSDOF 6
ENDMDL
