MODEL 1
REMARK VINA RESULT:      38.1      0.000      0.000
REMARK  3 active torsions:
REMARK  status: ('A' for Active; 'I' for Inactive)
REMARK    1  A    between atoms: C_5  and  N_1 
REMARK    2  A    between atoms: C_4  and  C_5 
REMARK       I    between atoms: N_8  and  C_4 
REMARK    3  A    between atoms: C_13  and  N_8 
ROOT
ATOM      1  C   UNL d   1     -56.995 -99.483 -44.664  0.00  0.00     0.297 C 
ATOM      2  N   UNL d   1     -56.192 -99.516 -44.812  0.00  0.00    -0.207 NA
ATOM      3  O   UNL d   1     -57.411-100.158 -44.427  0.00  0.00    -0.264 OA
ENDROOT
BRANCH   1   4
ATOM      4  C   UNL d   1     -57.397 -98.768 -44.751  0.00  0.00     0.148 C 
BRANCH   4   5
ATOM      5  N   UNL d   1     -58.223 -98.765 -44.805  0.00  0.00    -0.235 N 
ATOM      6  C   UNL d   1     -58.681 -98.763 -44.112  0.00  0.00     0.274 A 
ATOM      7  O   UNL d   1     -58.310 -98.764 -43.370  0.00  0.00    -0.266 OA
ATOM      8  C   UNL d   1     -59.497 -98.760 -44.165  0.00  0.00     0.097 A 
ATOM      9  S   UNL d   1     -59.873 -98.760 -44.895  0.00  0.00    -0.076 SA
ATOM     10  C   UNL d   1     -59.423 -98.762 -45.583  0.00  0.00     0.097 A 
ATOM     11  C   UNL d   1     -58.598 -98.765 -45.547  0.00  0.00     0.274 A 
ATOM     12  O   UNL d   1     -58.144 -98.767 -46.235  0.00  0.00    -0.266 OA
ENDBRANCH   4   5
ENDBRANCH   1   4
BRANCH   2  13
ATOM     13  C   UNL d   1     -55.789-100.231 -44.725  0.00  0.00     0.087 A 
ATOM     14  C   UNL d   1     -56.034-100.773 -44.153  0.00  0.00     0.045 A 
ATOM     15  C   UNL d   1     -55.641-101.485 -44.059  0.00  0.00     0.121 A 
ATOM     16  O   UNL d   1     -55.757-102.125 -43.543  0.00  0.00    -0.299 OA
ATOM     17  C   UNL d   1     -54.994-101.665 -44.539  0.00  0.00     0.119 A 
ATOM     18  C   UNL d   1     -55.177-102.695 -43.711  0.00  0.00     0.304 A 
ATOM     19  O   UNL d   1     -54.714-102.404 -44.323  0.00  0.00    -0.300 OA
ATOM     20  C   UNL d   1     -54.752-101.115 -45.112  0.00  0.00     0.028 A 
ATOM     21  C   UNL d   1     -55.149-100.402 -45.204  0.00  0.00     0.021 A 
ENDBRANCH   2  13
TORSDOF 3
ENDMDL
