MODEL 1
REMARK VINA RESULT:      -4.9      0.000      0.000
REMARK  3 active torsions:
REMARK  status: ('A' for Active; 'I' for Inactive)
REMARK    1  A    between atoms: C_6  and  N_1 
REMARK    2  A    between atoms: C_7  and  O_10 
REMARK    3  A    between atoms: O_10  and  C_13 
ROOT
ATOM      1  C   UNL d   1      57.061   0.066  31.885  0.00  0.00     0.070 A 
ATOM      2  C   UNL d   1      56.554   0.675  32.151  0.00  0.00     0.020 A 
ATOM      3  C   UNL d   1      56.898  -0.720  32.079  0.00  0.00     0.020 A 
ATOM      4  C   UNL d   1      55.732  -0.317  32.801  0.00  0.00     0.105 A 
ATOM      5  C   UNL d   1      56.241  -0.917  32.533  0.00  0.00     0.026 A 
ATOM      6  C   UNL d   1      55.894   0.477  32.607  0.00  0.00     0.026 A 
ENDROOT
BRANCH   1   7
ATOM      7  N   UNL d   1      57.715   0.262  31.433  0.00  0.00    -0.242 N 
ATOM      8  C   UNL d   1      57.799   0.209  30.594  0.00  0.00     0.267 A 
ATOM      9  C   UNL d   1      58.540   0.464  30.408  0.00  0.00     0.066 A 
ATOM     10  O   UNL d   1      57.238  -0.051  30.052  0.00  0.00    -0.267 OA
ATOM     11  C   UNL d   1      58.939   0.676  31.077  0.00  0.00     0.066 A 
ATOM     12  C   UNL d   1      58.406   0.544  31.721  0.00  0.00     0.267 A 
ATOM     13  O   UNL d   1      58.562   0.681  32.522  0.00  0.00    -0.267 OA
ENDBRANCH   1   7
BRANCH   4  14
ATOM     14  O   UNL d   1      55.093  -0.508  33.243  0.00  0.00    -0.260 OA
BRANCH  14  15
ATOM     15  C   UNL d   1      54.829   0.001  33.821  0.00  0.00     0.391 C 
ATOM     16  F   UNL d   1      55.157  -0.019  34.558  0.00  0.00    -0.145 F 
ATOM     17  F   UNL d   1      54.234   0.532  33.657  0.00  0.00    -0.145 F 
ENDBRANCH  14  15
ENDBRANCH   4  14
TORSDOF 3
ENDMDL
MODEL 2
REMARK VINA RESULT:      -4.7      2.100      3.511
REMARK  3 active torsions:
REMARK  status: ('A' for Active; 'I' for Inactive)
REMARK    1  A    between atoms: C_6  and  N_1 
REMARK    2  A    between atoms: C_7  and  O_10 
REMARK    3  A    between atoms: O_10  and  C_13 
ROOT
ATOM      1  C   UNL d   1      56.211   0.083  32.982  0.00  0.00     0.070 A 
ATOM      2  C   UNL d   1      56.519   0.682  32.488  0.00  0.00     0.020 A 
ATOM      3  C   UNL d   1      56.276  -0.710  32.758  0.00  0.00     0.020 A 
ATOM      4  C   UNL d   1      56.953  -0.332  31.557  0.00  0.00     0.105 A 
ATOM      5  C   UNL d   1      56.643  -0.922  32.053  0.00  0.00     0.026 A 
ATOM      6  C   UNL d   1      56.888   0.469  31.780  0.00  0.00     0.026 A 
ENDROOT
BRANCH   1   7
ATOM      7  N   UNL d   1      55.846   0.294  33.684  0.00  0.00    -0.242 N 
ATOM      8  C   UNL d   1      55.017   0.336  33.844  0.00  0.00     0.267 A 
ATOM      9  C   UNL d   1      54.930   0.569  34.610  0.00  0.00     0.066 A 
ATOM     10  O   UNL d   1      54.400   0.172  33.325  0.00  0.00    -0.267 OA
ATOM     11  C   UNL d   1      55.652   0.679  34.952  0.00  0.00     0.066 A 
ATOM     12  C   UNL d   1      56.225   0.502  34.357  0.00  0.00     0.267 A 
ATOM     13  O   UNL d   1      57.048   0.535  34.442  0.00  0.00    -0.267 OA
ENDBRANCH   1   7
BRANCH   4  14
ATOM     14  O   UNL d   1      57.309  -0.538  30.871  0.00  0.00    -0.260 OA
BRANCH  14  15
ATOM     15  C   UNL d   1      57.773   0.001  30.474  0.00  0.00     0.391 C 
ATOM     16  F   UNL d   1      58.567   0.035  30.616  0.00  0.00    -0.145 F 
ATOM     17  F   UNL d   1      57.437   0.508  29.933  0.00  0.00    -0.145 F 
ENDBRANCH  14  15
ENDBRANCH   4  14
TORSDOF 3
ENDMDL
MODEL 3
REMARK VINA RESULT:      -4.5      1.266      1.726
REMARK  3 active torsions:
REMARK  status: ('A' for Active; 'I' for Inactive)
REMARK    1  A    between atoms: C_6  and  N_1 
REMARK    2  A    between atoms: C_7  and  O_10 
REMARK    3  A    between atoms: O_10  and  C_13 
ROOT
ATOM      1  C   UNL d   1      57.831   0.098  30.775  0.00  0.00     0.070 A 
ATOM      2  C   UNL d   1      57.675  -0.709  30.926  0.00  0.00     0.020 A 
ATOM      3  C   UNL d   1      57.382   0.681  31.150  0.00  0.00     0.020 A 
ATOM      4  C   UNL d   1      56.620  -0.320  31.829  0.00  0.00     0.105 A 
ATOM      5  C   UNL d   1      56.780   0.480  31.674  0.00  0.00     0.026 A 
ATOM      6  C   UNL d   1      57.071  -0.910  31.452  0.00  0.00     0.026 A 
ENDROOT
BRANCH   1   7
ATOM      7  N   UNL d   1      58.430   0.297  30.253  0.00  0.00    -0.242 N 
ATOM      8  C   UNL d   1      58.399   0.304  29.409  0.00  0.00     0.267 A 
ATOM      9  C   UNL d   1      59.123   0.537  29.143  0.00  0.00     0.066 A 
ATOM     10  O   UNL d   1      57.758   0.111  28.931  0.00  0.00    -0.267 OA
ATOM     11  C   UNL d   1      59.617   0.681  29.764  0.00  0.00     0.066 A 
ATOM     12  C   UNL d   1      59.167   0.525  30.464  0.00  0.00     0.267 A 
ATOM     13  O   UNL d   1      59.434   0.594  31.244  0.00  0.00    -0.267 OA
ENDBRANCH   1   7
BRANCH   4  14
ATOM     14  O   UNL d   1      56.034  -0.514  32.339  0.00  0.00    -0.260 OA
BRANCH  14  15
ATOM     15  C   UNL d   1      56.182  -1.029  32.952  0.00  0.00     0.391 C 
ATOM     16  F   UNL d   1      56.533  -0.764  33.629  0.00  0.00    -0.145 F 
ATOM     17  F   UNL d   1      55.977  -1.814  32.884  0.00  0.00    -0.145 F 
ENDBRANCH  14  15
ENDBRANCH   4  14
TORSDOF 3
ENDMDL
