MODEL 1
REMARK VINA RESULT:       3.4      0.000      0.000
REMARK  2 active torsions:
REMARK  status: ('A' for Active; 'I' for Inactive)
REMARK    1  A    between atoms: C_6  and  N_2 
REMARK    2  A    between atoms: C_4  and  C_6 
ROOT
ATOM      1  C   UNL d   1      46.334 -19.288  41.617  0.00  0.00     0.206 A 
ATOM      2  N   UNL d   1      46.427 -19.443  42.419  0.00  0.00    -0.277 N 
ATOM      3  N   UNL d   1      46.461 -18.477  41.500  0.00  0.00    -0.215 NA
ATOM      4  C   UNL d   1      46.632 -18.138  42.238  0.00  0.00     0.120 A 
ATOM      5  C   UNL d   1      46.611 -18.736  42.806  0.00  0.00     0.103 A 
ATOM      6  S   UNL d   1      46.148 -19.838  41.031  0.00  0.00    -0.038 SA
ENDROOT
BRANCH   2   7
ATOM      7  C   UNL d   1      46.349 -20.183  42.781  0.00  0.00     0.107 C 
BRANCH   7   8
ATOM      8  C   UNL d   1      46.132 -20.232  43.576  0.00  0.00     0.118 A 
ATOM      9  O   UNL d   1      45.358 -20.226  43.873  0.00  0.00    -0.304 OA
ATOM     10  C   UNL d   1      45.400 -20.286  44.691  0.00  0.00     0.123 A 
ATOM     11  C   UNL d   1      46.196 -20.330  44.905  0.00  0.00     0.029 A 
ATOM     12  C   UNL d   1      46.645 -20.296  44.215  0.00  0.00     0.028 A 
ENDBRANCH   7   8
ENDBRANCH   2   7
TORSDOF 2
ENDMDL
MODEL 2
REMARK VINA RESULT:       3.4      5.755      6.808
REMARK  2 active torsions:
REMARK  status: ('A' for Active; 'I' for Inactive)
REMARK    1  A    between atoms: C_6  and  N_2 
REMARK    2  A    between atoms: C_4  and  C_6 
ROOT
ATOM      1  C   UNL d   1      45.138 -14.719  44.841  0.00  0.00     0.206 A 
ATOM      2  N   UNL d   1      45.351 -13.961  44.602  0.00  0.00    -0.277 N 
ATOM      3  N   UNL d   1      45.835 -15.154  44.948  0.00  0.00    -0.215 NA
ATOM      4  C   UNL d   1      46.475 -14.657  44.773  0.00  0.00     0.120 A 
ATOM      5  C   UNL d   1      46.175 -13.919  44.559  0.00  0.00     0.103 A 
ATOM      6  S   UNL d   1      44.370 -14.998  44.954  0.00  0.00    -0.038 SA
ENDROOT
BRANCH   2   7
ATOM      7  C   UNL d   1      44.828 -13.342  44.433  0.00  0.00     0.107 C 
BRANCH   7   8
ATOM      8  C   UNL d   1      44.963 -12.854  43.781  0.00  0.00     0.118 A 
ATOM      9  O   UNL d   1      45.692 -12.526  43.559  0.00  0.00    -0.304 OA
ATOM     10  C   UNL d   1      45.572 -12.080  42.881  0.00  0.00     0.123 A 
ATOM     11  C   UNL d   1      44.773 -12.128  42.678  0.00  0.00     0.029 A 
ATOM     12  C   UNL d   1      44.400 -12.607  43.236  0.00  0.00     0.028 A 
ENDBRANCH   7   8
ENDBRANCH   2   7
TORSDOF 2
ENDMDL
MODEL 3
REMARK VINA RESULT:       4.9      7.783      8.064
REMARK  2 active torsions:
REMARK  status: ('A' for Active; 'I' for Inactive)
REMARK    1  A    between atoms: C_6  and  N_2 
REMARK    2  A    between atoms: C_4  and  C_6 
ROOT
ATOM      1  C   UNL d   1      43.329 -15.648  36.677  0.00  0.00     0.206 A 
ATOM      2  N   UNL d   1      44.143 -15.550  36.745  0.00  0.00    -0.277 N 
ATOM      3  N   UNL d   1      43.190 -16.423  36.419  0.00  0.00    -0.215 NA
ATOM      4  C   UNL d   1      43.924 -16.798  36.330  0.00  0.00     0.120 A 
ATOM      5  C   UNL d   1      44.514 -16.257  36.532  0.00  0.00     0.103 A 
ATOM      6  S   UNL d   1      42.754 -15.079  36.835  0.00  0.00    -0.038 SA
ENDROOT
BRANCH   2   7
ATOM      7  C   UNL d   1      44.529 -14.858  36.986  0.00  0.00     0.107 C 
BRANCH   7   8
ATOM      8  C   UNL d   1      45.350 -14.803  36.928  0.00  0.00     0.118 A 
ATOM      9  O   UNL d   1      45.827 -15.179  36.364  0.00  0.00    -0.304 OA
ATOM     10  C   UNL d   1      46.607 -14.970  36.512  0.00  0.00     0.123 A 
ATOM     11  C   UNL d   1      46.619 -14.466  37.166  0.00  0.00     0.029 A 
ATOM     12  C   UNL d   1      45.842 -14.365  37.420  0.00  0.00     0.028 A 
ENDBRANCH   7   8
ENDBRANCH   2   7
TORSDOF 2
ENDMDL
MODEL 4
REMARK VINA RESULT:       5.5      7.673      7.975
REMARK  2 active torsions:
REMARK  status: ('A' for Active; 'I' for Inactive)
REMARK    1  A    between atoms: C_6  and  N_2 
REMARK    2  A    between atoms: C_4  and  C_6 
ROOT
ATOM      1  C   UNL d   1      45.948 -14.262  37.234  0.00  0.00     0.206 A 
ATOM      2  N   UNL d   1      45.426 -14.870  37.052  0.00  0.00    -0.277 N 
ATOM      3  N   UNL d   1      46.646 -14.393  36.807  0.00  0.00    -0.215 NA
ATOM      4  C   UNL d   1      46.546 -15.086  36.363  0.00  0.00     0.120 A 
ATOM      5  C   UNL d   1      45.791 -15.382  36.515  0.00  0.00     0.103 A 
ATOM      6  S   UNL d   1      45.805 -13.633  37.748  0.00  0.00    -0.038 SA
ENDROOT
BRANCH   2   7
ATOM      7  C   UNL d   1      44.661 -14.958  37.355  0.00  0.00     0.107 C 
BRANCH   7   8
ATOM      8  C   UNL d   1      44.109 -15.424  36.954  0.00  0.00     0.118 A 
ATOM      9  O   UNL d   1      44.209 -16.216  36.729  0.00  0.00    -0.304 OA
ATOM     10  C   UNL d   1      43.525 -16.457  36.345  0.00  0.00     0.123 A 
ATOM     11  C   UNL d   1      42.999 -15.821  36.330  0.00  0.00     0.029 A 
ATOM     12  C   UNL d   1      43.362 -15.185  36.706  0.00  0.00     0.028 A 
ENDBRANCH   7   8
ENDBRANCH   2   7
TORSDOF 2
ENDMDL
