MODEL 1
REMARK VINA RESULT:      61.9      0.000      0.000
REMARK  7 active torsions:
REMARK  status: ('A' for Active; 'I' for Inactive)
REMARK    1  A    between atoms: C_3  and  S_1 
REMARK    2  A    between atoms: N_4  and  S_1 
REMARK    3  A    between atoms: C_2  and  C_9 
REMARK       I    between atoms: N_5  and  C_2 
REMARK    4  A    between atoms: C_15  and  N_4 
REMARK    5  A    between atoms: C_10  and  N_5 
REMARK    6  A    between atoms: C_18  and  C_15 
REMARK    7  A    between atoms: O_22  and  C_16 
ROOT
ATOM      1  C   UNL d   1     -48.248  29.086  34.821  0.00  0.00     0.058 A 
ATOM      2  C   UNL d   1     -48.906  28.821  35.247  0.00  0.00     0.005 A 
ATOM      3  C   UNL d   1     -47.954  28.638  34.197  0.00  0.00     0.005 A 
ATOM      4  C   UNL d   1     -48.972  27.663  34.426  0.00  0.00     0.020 A 
ATOM      5  C   UNL d   1     -49.266  28.111  35.049  0.00  0.00     0.002 A 
ATOM      6  C   UNL d   1     -48.318  27.925  34.001  0.00  0.00     0.002 A 
ENDROOT
BRANCH   4   7
ATOM      7  C   UNL d   1     -49.332  26.947  34.223  0.00  0.00     0.112 C 
BRANCH   7   8
ATOM      8  N   UNL d   1     -49.754  26.886  33.514  0.00  0.00    -0.157 NA
BRANCH   8   9
ATOM      9  S   UNL d   1     -50.407  26.373  33.461  0.00  0.00     0.285 S 
ATOM     10  O   UNL d   1     -50.909  27.020  33.319  0.00  0.00    -0.198 OA
ATOM     11  O   UNL d   1     -49.904  25.720  33.603  0.00  0.00    -0.198 OA
BRANCH   9  12
ATOM     12  C   UNL d   1     -51.054  25.860  33.409  0.00  0.00     0.107 A 
ATOM     13  C   UNL d   1     -50.937  25.047  33.397  0.00  0.00     0.037 A 
ATOM     14  C   UNL d   1     -51.580  24.530  33.345  0.00  0.00     0.095 A 
ATOM     15  C   UNL d   1     -52.341  24.828  33.306  0.00  0.00     0.024 A 
ATOM     16  C   UNL d   1     -52.464  25.647  33.318  0.00  0.00     0.003 A 
ATOM     17  C   UNL d   1     -51.820  26.163  33.370  0.00  0.00     0.013 A 
BRANCH  14  18
ATOM     18  O   UNL d   1     -51.459  23.715  33.333  0.00  0.00    -0.328 OA
ATOM     19  C   UNL d   1     -52.091  23.206  33.408  0.00  0.00     0.181 C 
ENDBRANCH  14  18
ENDBRANCH   9  12
ENDBRANCH   8   9
ENDBRANCH   7   8
ENDBRANCH   4   7
BRANCH   1  20
ATOM     20  C   UNL d   1     -47.880  29.802  35.016  0.00  0.00     0.279 C 
ATOM     21  N   UNL d   1     -48.145  30.499  34.678  0.00  0.00    -0.208 NA
ATOM     22  O   UNL d   1     -47.251  29.816  35.547  0.00  0.00    -0.265 OA
BRANCH  21  23
ATOM     23  C   UNL d   1     -47.780  31.212  34.871  0.00  0.00     0.086 A 
ATOM     24  C   UNL d   1     -47.970  31.896  34.443  0.00  0.00     0.031 A 
ATOM     25  C   UNL d   1     -47.602  32.608  34.639  0.00  0.00     0.059 A 
ATOM     26 CL   UNL d   1     -47.789  33.287  34.216  0.00  0.00    -0.082 Cl
ATOM     27  C   UNL d   1     -47.052  32.638  35.254  0.00  0.00     0.011 A 
ATOM     28  C   UNL d   1     -46.869  31.952  35.675  0.00  0.00     0.002 A 
ATOM     29  C   UNL d   1     -47.237  31.241  35.478  0.00  0.00     0.019 A 
ENDBRANCH  21  23
ENDBRANCH   1  20
TORSDOF 7
ENDMDL
