MODEL 1
REMARK VINA RESULT:      -4.8      0.000      0.000
REMARK  5 active torsions:
REMARK  status: ('A' for Active; 'I' for Inactive)
REMARK       I    between atoms: C_2  and  N_1 
REMARK    1  A    between atoms: C_14  and  C_2 
REMARK    2  A    between atoms: C_8  and  O_11 
REMARK    3  A    between atoms: O_11  and  C_17 
REMARK    4  A    between atoms: C_18  and  C_14 
REMARK    5  A    between atoms: C_17  and  C_18 
ROOT
ATOM      1  C   UNL d   1      58.168  -1.225  30.354  0.00  0.00     0.123 C 
ENDROOT
BRANCH   1   2
ATOM      2  O   UNL d   1      58.311  -1.294  29.545  0.00  0.00    -0.305 OA
BRANCH   2   3
ATOM      3  C   UNL d   1      58.887  -1.812  29.275  0.00  0.00     0.100 A 
ATOM      4  C   UNL d   1      59.672  -1.564  29.220  0.00  0.00     0.025 A 
ATOM      5  C   UNL d   1      60.251  -2.084  28.949  0.00  0.00     0.013 A 
ATOM      6  C   UNL d   1      61.036  -1.836  28.894  0.00  0.00     0.001 C 
ATOM      7  C   UNL d   1      60.046  -2.853  28.731  0.00  0.00     0.058 A 
ATOM      8  C   UNL d   1      59.262  -3.101  28.785  0.00  0.00     0.013 A 
ATOM      9 CL   UNL d   1      60.627  -3.373  28.459  0.00  0.00    -0.082 Cl
ATOM     10  C   UNL d   1      58.682  -2.581  29.057  0.00  0.00     0.025 A 
ATOM     11  C   UNL d   1      59.057  -3.869  28.567  0.00  0.00     0.001 C 
ENDBRANCH   2   3
ENDBRANCH   1   2
BRANCH   1  12
ATOM     12  C   UNL d   1      57.689  -0.616  30.639  0.00  0.00     0.032 C 
BRANCH  12  13
ATOM     13  C   UNL d   1      57.256  -0.721  31.334  0.00  0.00     0.063 C 
BRANCH  13  14
ATOM     14  C   UNL d   1      56.858  -0.083  31.672  0.00  0.00     0.265 C 
ATOM     15  N   UNL d   1      56.323  -0.209  32.287  0.00  0.00    -0.272 N 
ATOM     16  C   UNL d   1      55.924   0.428  32.626  0.00  0.00     0.083 A 
ATOM     17  C   UNL d   1      56.186  -0.974  32.564  0.00  0.00     0.083 A 
ATOM     18  C   UNL d   1      55.389   0.302  33.241  0.00  0.00     0.019 A 
ATOM     19  C   UNL d   1      55.253  -0.463  33.518  0.00  0.00     0.003 A 
ATOM     20  C   UNL d   1      55.652  -1.101  33.179  0.00  0.00     0.019 A 
ATOM     21  O   UNL d   1      56.994   0.682  31.395  0.00  0.00    -0.267 OA
ENDBRANCH  13  14
ENDBRANCH  12  13
ENDBRANCH   1  12
TORSDOF 5
ENDMDL
MODEL 2
REMARK VINA RESULT:      -3.8      2.307      5.427
REMARK  5 active torsions:
REMARK  status: ('A' for Active; 'I' for Inactive)
REMARK       I    between atoms: C_2  and  N_1 
REMARK    1  A    between atoms: C_14  and  C_2 
REMARK    2  A    between atoms: C_8  and  O_11 
REMARK    3  A    between atoms: O_11  and  C_17 
REMARK    4  A    between atoms: C_18  and  C_14 
REMARK    5  A    between atoms: C_17  and  C_18 
ROOT
ATOM      1  C   UNL d   1      57.442  -0.119  31.277  0.00  0.00     0.123 C 
ENDROOT
BRANCH   1   2
ATOM      2  O   UNL d   1      57.155   0.570  31.626  0.00  0.00    -0.305 OA
BRANCH   2   3
ATOM      3  C   UNL d   1      56.832   0.544  32.380  0.00  0.00     0.100 A 
ATOM      4  C   UNL d   1      57.321   0.624  33.040  0.00  0.00     0.025 A 
ATOM      5  C   UNL d   1      56.999   0.598  33.798  0.00  0.00     0.013 A 
ATOM      6  C   UNL d   1      57.488   0.679  34.458  0.00  0.00     0.001 C 
ATOM      7  C   UNL d   1      56.187   0.491  33.898  0.00  0.00     0.058 A 
ATOM      8  C   UNL d   1      55.698   0.410  33.239  0.00  0.00     0.013 A 
ATOM      9 CL   UNL d   1      55.865   0.465  34.657  0.00  0.00    -0.082 Cl
ATOM     10  C   UNL d   1      56.020   0.437  32.479  0.00  0.00     0.025 A 
ATOM     11  C   UNL d   1      54.887   0.303  33.338  0.00  0.00     0.001 C 
ENDBRANCH   2   3
ENDBRANCH   1   2
BRANCH   1  12
ATOM     12  C   UNL d   1      57.900  -0.077  30.592  0.00  0.00     0.032 C 
BRANCH  12  13
ATOM     13  C   UNL d   1      58.107  -0.766  30.189  0.00  0.00     0.063 C 
BRANCH  13  14
ATOM     14  C   UNL d   1      58.745  -0.764  29.667  0.00  0.00     0.265 C 
ATOM     15  N   UNL d   1      59.000  -1.469  29.322  0.00  0.00    -0.272 N 
ATOM     16  C   UNL d   1      59.638  -1.466  28.800  0.00  0.00     0.083 A 
ATOM     17  C   UNL d   1      58.616  -2.177  29.500  0.00  0.00     0.083 A 
ATOM     18  C   UNL d   1      59.893  -2.171  28.455  0.00  0.00     0.019 A 
ATOM     19  C   UNL d   1      59.509  -2.879  28.633  0.00  0.00     0.003 A 
ATOM     20  C   UNL d   1      58.870  -2.882  29.156  0.00  0.00     0.019 A 
ATOM     21  O   UNL d   1      59.129  -0.056  29.489  0.00  0.00    -0.267 OA
ENDBRANCH  13  14
ENDBRANCH  12  13
ENDBRANCH   1  12
TORSDOF 5
ENDMDL
MODEL 3
REMARK VINA RESULT:      -2.6      8.183      8.746
REMARK  5 active torsions:
REMARK  status: ('A' for Active; 'I' for Inactive)
REMARK       I    between atoms: C_2  and  N_1 
REMARK    1  A    between atoms: C_14  and  C_2 
REMARK    2  A    between atoms: C_8  and  O_11 
REMARK    3  A    between atoms: O_11  and  C_17 
REMARK    4  A    between atoms: C_18  and  C_14 
REMARK    5  A    between atoms: C_17  and  C_18 
ROOT
ATOM      1  C   UNL d   1      59.155  -9.801  33.086  0.00  0.00     0.123 C 
ENDROOT
BRANCH   1   2
ATOM      2  O   UNL d   1      59.414  -9.789  32.304  0.00  0.00    -0.305 OA
BRANCH   2   3
ATOM      3  C   UNL d   1      58.866  -9.796  31.692  0.00  0.00     0.100 A 
ATOM      4  C   UNL d   1      58.059  -9.803  31.862  0.00  0.00     0.025 A 
ATOM      5  C   UNL d   1      57.508  -9.810  31.250  0.00  0.00     0.013 A 
ATOM      6  C   UNL d   1      56.700  -9.816  31.420  0.00  0.00     0.001 C 
ATOM      7  C   UNL d   1      57.763  -9.810  30.465  0.00  0.00     0.058 A 
ATOM      8  C   UNL d   1      58.570  -9.804  30.294  0.00  0.00     0.013 A 
ATOM      9 CL   UNL d   1      57.211  -9.818  29.852  0.00  0.00    -0.082 Cl
ATOM     10  C   UNL d   1      59.122  -9.797  30.908  0.00  0.00     0.025 A 
ATOM     11  C   UNL d   1      58.825  -9.804  29.511  0.00  0.00     0.001 C 
ENDBRANCH   2   3
ENDBRANCH   1   2
BRANCH   1  12
ATOM     12  C   UNL d   1      59.697  -9.704  33.702  0.00  0.00     0.032 C 
BRANCH  12  13
ATOM     13  C   UNL d   1      59.508  -9.225  34.347  0.00  0.00     0.063 C 
BRANCH  13  14
ATOM     14  C   UNL d   1      60.106  -8.940  34.838  0.00  0.00     0.265 C 
ATOM     15  N   UNL d   1      59.966  -8.288  35.323  0.00  0.00    -0.272 N 
ATOM     16  C   UNL d   1      60.564  -8.003  35.814  0.00  0.00     0.083 A 
ATOM     17  C   UNL d   1      59.228  -7.920  35.317  0.00  0.00     0.083 A 
ATOM     18  C   UNL d   1      60.424  -7.350  36.300  0.00  0.00     0.019 A 
ATOM     19  C   UNL d   1      59.685  -6.983  36.293  0.00  0.00     0.003 A 
ATOM     20  C   UNL d   1      59.087  -7.269  35.802  0.00  0.00     0.019 A 
ATOM     21  O   UNL d   1      60.845  -9.308  34.844  0.00  0.00    -0.267 OA
ENDBRANCH  13  14
ENDBRANCH  12  13
ENDBRANCH   1  12
TORSDOF 5
ENDMDL
MODEL 4
REMARK VINA RESULT:      -2.5      1.916      2.501
REMARK  5 active torsions:
REMARK  status: ('A' for Active; 'I' for Inactive)
REMARK       I    between atoms: C_2  and  N_1 
REMARK    1  A    between atoms: C_14  and  C_2 
REMARK    2  A    between atoms: C_8  and  O_11 
REMARK    3  A    between atoms: O_11  and  C_17 
REMARK    4  A    between atoms: C_18  and  C_14 
REMARK    5  A    between atoms: C_17  and  C_18 
ROOT
ATOM      1  C   UNL d   1      57.410   0.488  31.450  0.00  0.00     0.123 C 
ENDROOT
BRANCH   1   2
ATOM      2  O   UNL d   1      57.509   0.499  30.632  0.00  0.00    -0.305 OA
BRANCH   2   3
ATOM      3  C   UNL d   1      58.249   0.356  30.307  0.00  0.00     0.100 A 
ATOM      4  C   UNL d   1      58.929   0.568  30.724  0.00  0.00     0.025 A 
ATOM      5  C   UNL d   1      59.673   0.425  30.400  0.00  0.00     0.013 A 
ATOM      6  C   UNL d   1      60.353   0.637  30.817  0.00  0.00     0.001 C 
ATOM      7  C   UNL d   1      59.739   0.070  29.658  0.00  0.00     0.058 A 
ATOM      8  C   UNL d   1      59.060  -0.141  29.241  0.00  0.00     0.013 A 
ATOM      9 CL   UNL d   1      60.484  -0.073  29.334  0.00  0.00    -0.082 Cl
ATOM     10  C   UNL d   1      58.314   0.001  29.566  0.00  0.00     0.025 A 
ATOM     11  C   UNL d   1      59.125  -0.496  28.500  0.00  0.00     0.001 C 
ENDBRANCH   2   3
ENDBRANCH   1   2
BRANCH   1  12
ATOM     12  C   UNL d   1      56.679   0.682  31.781  0.00  0.00     0.032 C 
BRANCH  12  13
ATOM     13  C   UNL d   1      56.527   0.517  32.575  0.00  0.00     0.063 C 
BRANCH  13  14
ATOM     14  C   UNL d   1      55.758   0.561  32.867  0.00  0.00     0.265 C 
ATOM     15  N   UNL d   1      55.625   0.598  33.680  0.00  0.00    -0.272 N 
ATOM     16  C   UNL d   1      54.855   0.642  33.972  0.00  0.00     0.083 A 
ATOM     17  C   UNL d   1      56.264   0.591  34.202  0.00  0.00     0.083 A 
ATOM     18  C   UNL d   1      54.723   0.679  34.785  0.00  0.00     0.019 A 
ATOM     19  C   UNL d   1      55.361   0.672  35.308  0.00  0.00     0.003 A 
ATOM     20  C   UNL d   1      56.132   0.628  35.015  0.00  0.00     0.019 A 
ATOM     21  O   UNL d   1      55.119   0.568  32.345  0.00  0.00    -0.267 OA
ENDBRANCH  13  14
ENDBRANCH  12  13
ENDBRANCH   1  12
TORSDOF 5
ENDMDL
MODEL 5
REMARK VINA RESULT:      -2.5      2.826      5.620
REMARK  5 active torsions:
REMARK  status: ('A' for Active; 'I' for Inactive)
REMARK       I    between atoms: C_2  and  N_1 
REMARK    1  A    between atoms: C_14  and  C_2 
REMARK    2  A    between atoms: C_8  and  O_11 
REMARK    3  A    between atoms: O_11  and  C_17 
REMARK    4  A    between atoms: C_18  and  C_14 
REMARK    5  A    between atoms: C_17  and  C_18 
ROOT
ATOM      1  C   UNL d   1      57.381   0.359  31.286  0.00  0.00     0.123 C 
ENDROOT
BRANCH   1   2
ATOM      2  O   UNL d   1      57.041  -0.231  31.751  0.00  0.00    -0.305 OA
BRANCH   2   3
ATOM      3  C   UNL d   1      56.718  -0.041  32.481  0.00  0.00     0.100 A 
ATOM      4  C   UNL d   1      55.905  -0.117  32.603  0.00  0.00     0.025 A 
ATOM      5  C   UNL d   1      55.578   0.074  33.335  0.00  0.00     0.013 A 
ATOM      6  C   UNL d   1      54.765  -0.002  33.457  0.00  0.00     0.001 C 
ATOM      7  C   UNL d   1      56.063   0.340  33.947  0.00  0.00     0.058 A 
ATOM      8  C   UNL d   1      56.875   0.416  33.825  0.00  0.00     0.013 A 
ATOM      9 CL   UNL d   1      55.735   0.530  34.680  0.00  0.00    -0.082 Cl
ATOM     10  C   UNL d   1      57.203   0.225  33.092  0.00  0.00     0.025 A 
ATOM     11  C   UNL d   1      57.360   0.682  34.436  0.00  0.00     0.001 C 
ENDBRANCH   2   3
ENDBRANCH   1   2
BRANCH   1  12
ATOM     12  C   UNL d   1      57.643   0.185  30.523  0.00  0.00     0.032 C 
BRANCH  12  13
ATOM     13  C   UNL d   1      58.359   0.491  30.251  0.00  0.00     0.063 C 
BRANCH  13  14
ATOM     14  C   UNL d   1      58.641   0.282  29.505  0.00  0.00     0.265 C 
ATOM     15  N   UNL d   1      59.452   0.287  29.353  0.00  0.00    -0.272 N 
ATOM     16  C   UNL d   1      59.733   0.078  28.607  0.00  0.00     0.083 A 
ATOM     17  C   UNL d   1      59.981   0.502  29.948  0.00  0.00     0.083 A 
ATOM     18  C   UNL d   1      60.544   0.083  28.455  0.00  0.00     0.019 A 
ATOM     19  C   UNL d   1      61.074   0.298  29.050  0.00  0.00     0.003 A 
ATOM     20  C   UNL d   1      60.791   0.507  29.797  0.00  0.00     0.019 A 
ATOM     21  O   UNL d   1      58.111   0.068  28.910  0.00  0.00    -0.267 OA
ENDBRANCH  13  14
ENDBRANCH  12  13
ENDBRANCH   1  12
TORSDOF 5
ENDMDL
