MODEL 1
REMARK VINA RESULT:      -6.9      0.000      0.000
REMARK  4 active torsions:
REMARK  status: ('A' for Active; 'I' for Inactive)
REMARK    1  A    between atoms: C_6  and  N_1 
REMARK    2  A    between atoms: C_9  and  C_2 
REMARK    3  A    between atoms: O_14  and  C_10 
REMARK    4  A    between atoms: C_15  and  O_14 
ROOT
ATOM      1  C   UNL d   1     -47.436  13.363  22.522  0.00  0.00     0.086 A 
ATOM      2  C   UNL d   1     -47.786  13.981  22.938  0.00  0.00     0.021 A 
ATOM      3  C   UNL d   1     -47.804  13.055  21.855  0.00  0.00     0.021 A 
ATOM      4  C   UNL d   1     -48.878  13.988  22.020  0.00  0.00     0.100 A 
ATOM      5  C   UNL d   1     -48.526  13.368  21.604  0.00  0.00     0.026 A 
ATOM      6  C   UNL d   1     -48.507  14.293  22.688  0.00  0.00     0.026 A 
ENDROOT
BRANCH   1   7
ATOM      7  N   UNL d   1     -46.715  13.051  22.773  0.00  0.00    -0.191 N 
ATOM      8  C   UNL d   1     -46.608  12.360  23.208  0.00  0.00     0.200 A 
ATOM      9  N   UNL d   1     -45.796  12.257  23.337  0.00  0.00    -0.107 NA
ATOM     10  N   UNL d   1     -45.406  12.876  22.986  0.00  0.00    -0.022 NA
ATOM     11  N   UNL d   1     -45.971  13.372  22.635  0.00  0.00    -0.039 NA
BRANCH   8  12
ATOM     12  C   UNL d   1     -47.209  11.848  23.475  0.00  0.00     0.109 C 
ATOM     13 CL   UNL d   1     -47.195  11.049  23.697  0.00  0.00    -0.078 Cl
ENDBRANCH   8  12
ENDBRANCH   1   7
BRANCH   4  14
ATOM     14  O   UNL d   1     -49.596  14.299  21.770  0.00  0.00    -0.305 OA
BRANCH  14  15
ATOM     15  C   UNL d   1     -50.247  14.294  22.276  0.00  0.00     0.123 C 
ATOM     16  C   UNL d   1     -50.990  14.539  22.000  0.00  0.00     0.029 C 
ENDBRANCH  14  15
ENDBRANCH   4  14
TORSDOF 4
ENDMDL
MODEL 2
REMARK VINA RESULT:      -6.9      1.532      1.852
REMARK  4 active torsions:
REMARK  status: ('A' for Active; 'I' for Inactive)
REMARK    1  A    between atoms: C_6  and  N_1 
REMARK    2  A    between atoms: C_9  and  C_2 
REMARK    3  A    between atoms: O_14  and  C_10 
REMARK    4  A    between atoms: C_15  and  O_14 
ROOT
ATOM      1  C   UNL d   1     -47.743  12.150  23.101  0.00  0.00     0.086 A 
ATOM      2  C   UNL d   1     -48.066  11.863  22.401  0.00  0.00     0.021 A 
ATOM      3  C   UNL d   1     -48.214  12.562  23.633  0.00  0.00     0.021 A 
ATOM      4  C   UNL d   1     -49.338  12.400  22.761  0.00  0.00     0.100 A 
ATOM      5  C   UNL d   1     -49.013  12.688  23.463  0.00  0.00     0.026 A 
ATOM      6  C   UNL d   1     -48.863  11.988  22.230  0.00  0.00     0.026 A 
ENDROOT
BRANCH   1   7
ATOM      7  N   UNL d   1     -46.946  12.025  23.272  0.00  0.00    -0.191 N 
ATOM      8  C   UNL d   1     -46.325  12.539  23.105  0.00  0.00     0.200 A 
ATOM      9  N   UNL d   1     -45.621  12.193  23.371  0.00  0.00    -0.107 NA
ATOM     10  N   UNL d   1     -45.804  11.473  23.698  0.00  0.00    -0.022 NA
ATOM     11  N   UNL d   1     -46.624  11.364  23.639  0.00  0.00    -0.039 NA
BRANCH   8  12
ATOM     12  C   UNL d   1     -46.388  13.282  22.733  0.00  0.00     0.109 C 
ATOM     13 CL   UNL d   1     -45.814  13.839  22.512  0.00  0.00    -0.078 Cl
ENDBRANCH   8  12
ENDBRANCH   1   7
BRANCH   4  14
ATOM     14  O   UNL d   1     -50.132  12.525  22.591  0.00  0.00    -0.305 OA
BRANCH  14  15
ATOM     15  C   UNL d   1     -50.349  12.939  21.912  0.00  0.00     0.123 C 
ATOM     16  C   UNL d   1     -51.062  13.363  21.894  0.00  0.00     0.029 C 
ENDBRANCH  14  15
ENDBRANCH   4  14
TORSDOF 4
ENDMDL
MODEL 3
REMARK VINA RESULT:      -6.7      2.190      3.623
REMARK  4 active torsions:
REMARK  status: ('A' for Active; 'I' for Inactive)
REMARK    1  A    between atoms: C_6  and  N_1 
REMARK    2  A    between atoms: C_9  and  C_2 
REMARK    3  A    between atoms: O_14  and  C_10 
REMARK    4  A    between atoms: C_15  and  O_14 
ROOT
ATOM      1  C   UNL d   1     -47.662  13.495  22.914  0.00  0.00     0.086 A 
ATOM      2  C   UNL d   1     -47.840  12.887  23.439  0.00  0.00     0.021 A 
ATOM      3  C   UNL d   1     -46.892  13.594  22.644  0.00  0.00     0.021 A 
ATOM      4  C   UNL d   1     -46.475  12.470  23.428  0.00  0.00     0.100 A 
ATOM      5  C   UNL d   1     -46.298  13.081  22.901  0.00  0.00     0.026 A 
ATOM      6  C   UNL d   1     -47.247  12.374  23.696  0.00  0.00     0.026 A 
ENDROOT
BRANCH   1   7
ATOM      7  N   UNL d   1     -48.255  14.007  22.657  0.00  0.00    -0.191 N 
ATOM      8  C   UNL d   1     -48.820  13.848  22.080  0.00  0.00     0.200 A 
ATOM      9  N   UNL d   1     -49.304  14.515  21.998  0.00  0.00    -0.107 NA
ATOM     10  N   UNL d   1     -49.042  15.080  22.518  0.00  0.00    -0.022 NA
ATOM     11  N   UNL d   1     -48.391  14.770  22.929  0.00  0.00    -0.039 NA
BRANCH   8  12
ATOM     12  C   UNL d   1     -48.897  13.139  21.649  0.00  0.00     0.109 C 
ATOM     13 CL   UNL d   1     -49.443  12.901  21.070  0.00  0.00    -0.078 Cl
ENDBRANCH   8  12
ENDBRANCH   1   7
BRANCH   4  14
ATOM     14  O   UNL d   1     -45.884  11.961  23.684  0.00  0.00    -0.305 OA
BRANCH  14  15
ATOM     15  C   UNL d   1     -45.943  11.152  23.534  0.00  0.00     0.123 C 
ATOM     16  C   UNL d   1     -45.302  10.651  23.698  0.00  0.00     0.029 C 
ENDBRANCH  14  15
ENDBRANCH   4  14
TORSDOF 4
ENDMDL
MODEL 4
REMARK VINA RESULT:      -6.3      2.851      3.968
REMARK  4 active torsions:
REMARK  status: ('A' for Active; 'I' for Inactive)
REMARK    1  A    between atoms: C_6  and  N_1 
REMARK    2  A    between atoms: C_9  and  C_2 
REMARK    3  A    between atoms: O_14  and  C_10 
REMARK    4  A    between atoms: C_15  and  O_14 
ROOT
ATOM      1  C   UNL d   1     -49.009  14.758  22.940  0.00  0.00     0.086 A 
ATOM      2  C   UNL d   1     -48.857  14.042  23.317  0.00  0.00     0.021 A 
ATOM      3  C   UNL d   1     -48.401  15.165  22.567  0.00  0.00     0.021 A 
ATOM      4  C   UNL d   1     -47.481  14.135  22.948  0.00  0.00     0.100 A 
ATOM      5  C   UNL d   1     -47.636  14.853  22.571  0.00  0.00     0.026 A 
ATOM      6  C   UNL d   1     -48.093  13.731  23.321  0.00  0.00     0.026 A 
ENDROOT
BRANCH   1   7
ATOM      7  N   UNL d   1     -49.773  15.069  22.936  0.00  0.00    -0.191 N 
ATOM      8  C   UNL d   1     -50.403  14.808  22.476  0.00  0.00     0.200 A 
ATOM      9  N   UNL d   1     -51.064  15.276  22.648  0.00  0.00    -0.107 NA
ATOM     10  N   UNL d   1     -50.845  15.821  23.209  0.00  0.00    -0.022 NA
ATOM     11  N   UNL d   1     -50.046  15.697  23.391  0.00  0.00    -0.039 NA
BRANCH   8  12
ATOM     12  C   UNL d   1     -50.386  14.180  21.928  0.00  0.00     0.109 C 
ATOM     13 CL   UNL d   1     -50.977  13.849  21.448  0.00  0.00    -0.078 Cl
ENDBRANCH   8  12
ENDBRANCH   1   7
BRANCH   4  14
ATOM     14  O   UNL d   1     -46.721  13.826  22.952  0.00  0.00    -0.305 OA
BRANCH  14  15
ATOM     15  C   UNL d   1     -46.486  13.301  22.363  0.00  0.00     0.123 C 
ATOM     16  C   UNL d   1     -45.694  13.056  22.315  0.00  0.00     0.029 C 
ENDBRANCH  14  15
ENDBRANCH   4  14
TORSDOF 4
ENDMDL
MODEL 5
REMARK VINA RESULT:      -6.3      2.415      3.522
REMARK  4 active torsions:
REMARK  status: ('A' for Active; 'I' for Inactive)
REMARK    1  A    between atoms: C_6  and  N_1 
REMARK    2  A    between atoms: C_9  and  C_2 
REMARK    3  A    between atoms: O_14  and  C_10 
REMARK    4  A    between atoms: C_15  and  O_14 
ROOT
ATOM      1  C   UNL d   1     -47.989  12.272  23.148  0.00  0.00     0.086 A 
ATOM      2  C   UNL d   1     -47.376  12.291  23.698  0.00  0.00     0.021 A 
ATOM      3  C   UNL d   1     -47.880  12.590  22.399  0.00  0.00     0.021 A 
ATOM      4  C   UNL d   1     -46.538  12.948  22.748  0.00  0.00     0.100 A 
ATOM      5  C   UNL d   1     -47.153  12.928  22.198  0.00  0.00     0.026 A 
ATOM      6  C   UNL d   1     -46.651  12.628  23.498  0.00  0.00     0.026 A 
ENDROOT
BRANCH   1   7
ATOM      7  N   UNL d   1     -48.715  11.934  23.348  0.00  0.00    -0.191 N 
ATOM      8  C   UNL d   1     -49.413  12.339  23.508  0.00  0.00     0.200 A 
ATOM      9  N   UNL d   1     -50.002  11.784  23.683  0.00  0.00    -0.107 NA
ATOM     10  N   UNL d   1     -49.671  11.044  23.633  0.00  0.00    -0.022 NA
ATOM     11  N   UNL d   1     -48.873  11.132  23.426  0.00  0.00    -0.039 NA
BRANCH   8  12
ATOM     12  C   UNL d   1     -49.517  13.166  23.496  0.00  0.00     0.109 C 
ATOM     13 CL   UNL d   1     -50.164  13.644  23.698  0.00  0.00    -0.078 Cl
ENDBRANCH   8  12
ENDBRANCH   1   7
BRANCH   4  14
ATOM     14  O   UNL d   1     -45.816  13.284  22.549  0.00  0.00    -0.305 OA
BRANCH  14  15
ATOM     15  C   UNL d   1     -45.248  12.838  22.152  0.00  0.00     0.123 C 
ATOM     16  C   UNL d   1     -44.583  13.209  21.823  0.00  0.00     0.029 C 
ENDBRANCH  14  15
ENDBRANCH   4  14
TORSDOF 4
ENDMDL
MODEL 6
REMARK VINA RESULT:      -6.0      2.560      3.816
REMARK  4 active torsions:
REMARK  status: ('A' for Active; 'I' for Inactive)
REMARK    1  A    between atoms: C_6  and  N_1 
REMARK    2  A    between atoms: C_9  and  C_2 
REMARK    3  A    between atoms: O_14  and  C_10 
REMARK    4  A    between atoms: C_15  and  O_14 
ROOT
ATOM      1  C   UNL d   1     -48.736  13.355  22.651  0.00  0.00     0.086 A 
ATOM      2  C   UNL d   1     -48.833  12.743  23.192  0.00  0.00     0.021 A 
ATOM      3  C   UNL d   1     -47.982  13.597  22.434  0.00  0.00     0.021 A 
ATOM      4  C   UNL d   1     -47.416  12.611  23.305  0.00  0.00     0.100 A 
ATOM      5  C   UNL d   1     -47.321  13.225  22.762  0.00  0.00     0.026 A 
ATOM      6  C   UNL d   1     -48.173  12.371  23.520  0.00  0.00     0.026 A 
ENDROOT
BRANCH   1   7
ATOM      7  N   UNL d   1     -49.396  13.726  22.323  0.00  0.00    -0.191 N 
ATOM      8  C   UNL d   1     -49.773  14.396  22.616  0.00  0.00     0.200 A 
ATOM      9  N   UNL d   1     -50.408  14.578  22.116  0.00  0.00    -0.107 NA
ATOM     10  N   UNL d   1     -50.423  14.026  21.521  0.00  0.00    -0.022 NA
ATOM     11  N   UNL d   1     -49.798  13.496  21.644  0.00  0.00    -0.039 NA
BRANCH   8  12
ATOM     12  C   UNL d   1     -49.558  14.824  23.298  0.00  0.00     0.109 C 
ATOM     13 CL   UNL d   1     -49.897  15.487  23.665  0.00  0.00    -0.078 Cl
ENDBRANCH   8  12
ENDBRANCH   1   7
BRANCH   4  14
ATOM     14  O   UNL d   1     -46.760  12.242  23.631  0.00  0.00    -0.305 OA
BRANCH  14  15
ATOM     15  C   UNL d   1     -46.696  11.420  23.611  0.00  0.00     0.123 C 
ATOM     16  C   UNL d   1     -45.954  11.058  23.698  0.00  0.00     0.029 C 
ENDBRANCH  14  15
ENDBRANCH   4  14
TORSDOF 4
ENDMDL
