MODEL 1
REMARK VINA RESULT:      -8.6      0.000      0.000
REMARK  7 active torsions:
REMARK  status: ('A' for Active; 'I' for Inactive)
REMARK    1  A    between atoms: C_4  and  C_10 
REMARK    2  A    between atoms: O_17  and  C_4 
REMARK    3  A    between atoms: O_19  and  C_5 
REMARK    4  A    between atoms: O_20  and  C_7 
REMARK    5  A    between atoms: C_12  and  C_8 
REMARK    6  A    between atoms: O_15  and  C_12 
REMARK    7  A    between atoms: C_16  and  O_15 
ROOT
ATOM      1  C   UNL d   1      52.820  33.446  53.680  0.00  0.00     0.022 A 
ATOM      2  C   UNL d   1      52.761  34.170  54.066  0.00  0.00     0.028 A 
ATOM      3  C   UNL d   1      53.463  32.934  53.833  0.00  0.00     0.005 A 
ATOM      4  C   UNL d   1      53.345  34.381  54.604  0.00  0.00     0.116 A 
ATOM      5  C   UNL d   1      54.043  33.149  54.371  0.00  0.00     0.026 A 
ATOM      6  C   UNL d   1      53.988  33.869  54.758  0.00  0.00     0.116 A 
ATOM      7  C   UNL d   1      52.237  33.237  53.144  0.00  0.00     0.106 A 
ATOM      8  N   UNL d   1      52.296  32.513  52.759  0.00  0.00    -0.242 NA
ATOM      9  C   UNL d   1      52.939  32.001  52.912  0.00  0.00     0.099 A 
ATOM     10  C   UNL d   1      53.519  32.215  53.450  0.00  0.00     0.021 A 
ENDROOT
BRANCH   7  11
ATOM     11  C   UNL d   1      51.594  33.749  52.991  0.00  0.00     0.142 C 
BRANCH  11  12
ATOM     12  O   UNL d   1      51.232  33.749  52.255  0.00  0.00    -0.304 OA
BRANCH  12  13
ATOM     13  C   UNL d   1      50.492  34.114  52.153  0.00  0.00     0.100 A 
ATOM     14  C   UNL d   1      50.133  34.141  51.410  0.00  0.00     0.025 A 
ATOM     15  C   UNL d   1      49.394  34.506  51.308  0.00  0.00     0.007 A 
ATOM     16  C   UNL d   1      49.000  34.850  51.945  0.00  0.00     0.063 A 
ATOM     17  C   UNL d   1      49.358  34.822  52.687  0.00  0.00     0.007 A 
ATOM     18  C   UNL d   1      50.098  34.457  52.790  0.00  0.00     0.025 A 
BRANCH  16  19
ATOM     19  C   UNL d   1      48.259  35.214  51.837  0.00  0.00     0.296 C 
ATOM     20  O   UNL d   1      47.778  35.016  51.206  0.00  0.00    -0.259 OA
BRANCH  19  21
ATOM     21  O   UNL d   1      47.996  35.791  52.377  0.00  0.00    -0.296 OA
ATOM     22  C   UNL d   1      47.271  36.197  52.245  0.00  0.00     0.185 C 
ENDBRANCH  19  21
ENDBRANCH  16  19
ENDBRANCH  12  13
ENDBRANCH  11  12
ENDBRANCH   7  11
BRANCH   4  23
ATOM     23  O   UNL d   1      53.291  35.115  54.999  0.00  0.00    -0.326 OA
ATOM     24  C   UNL d   1      52.909  35.745  54.638  0.00  0.00     0.181 C 
ENDBRANCH   4  23
BRANCH   6  25
ATOM     25  O   UNL d   1      54.585  34.085  55.308  0.00  0.00    -0.326 OA
ATOM     26  C   UNL d   1      55.317  33.706  55.264  0.00  0.00     0.181 C 
ENDBRANCH   6  25
TORSDOF 7
ENDMDL
MODEL 2
REMARK VINA RESULT:      -8.3      2.393      4.836
REMARK  7 active torsions:
REMARK  status: ('A' for Active; 'I' for Inactive)
REMARK    1  A    between atoms: C_4  and  C_10 
REMARK    2  A    between atoms: O_17  and  C_4 
REMARK    3  A    between atoms: O_19  and  C_5 
REMARK    4  A    between atoms: O_20  and  C_7 
REMARK    5  A    between atoms: C_12  and  C_8 
REMARK    6  A    between atoms: O_15  and  C_12 
REMARK    7  A    between atoms: C_16  and  O_15 
ROOT
ATOM      1  C   UNL d   1      52.790  33.850  53.426  0.00  0.00     0.022 A 
ATOM      2  C   UNL d   1      53.352  33.753  54.018  0.00  0.00     0.028 A 
ATOM      3  C   UNL d   1      52.386  34.577  53.339  0.00  0.00     0.005 A 
ATOM      4  C   UNL d   1      53.509  34.382  54.524  0.00  0.00     0.116 A 
ATOM      5  C   UNL d   1      52.546  35.202  53.845  0.00  0.00     0.026 A 
ATOM      6  C   UNL d   1      53.105  35.108  54.437  0.00  0.00     0.116 A 
ATOM      7  C   UNL d   1      52.634  33.223  52.923  0.00  0.00     0.106 A 
ATOM      8  N   UNL d   1      52.072  33.321  52.331  0.00  0.00    -0.242 NA
ATOM      9  C   UNL d   1      51.668  34.047  52.244  0.00  0.00     0.099 A 
ATOM     10  C   UNL d   1      51.828  34.672  52.751  0.00  0.00     0.021 A 
ENDROOT
BRANCH   7  11
ATOM     11  C   UNL d   1      53.039  32.496  53.010  0.00  0.00     0.142 C 
BRANCH  11  12
ATOM     12  O   UNL d   1      52.721  31.807  52.700  0.00  0.00    -0.304 OA
BRANCH  12  13
ATOM     13  C   UNL d   1      52.852  31.078  53.077  0.00  0.00     0.100 A 
ATOM     14  C   UNL d   1      53.617  30.819  53.243  0.00  0.00     0.025 A 
ATOM     15  C   UNL d   1      53.748  30.090  53.620  0.00  0.00     0.007 A 
ATOM     16  C   UNL d   1      53.116  29.608  53.839  0.00  0.00     0.063 A 
ATOM     17  C   UNL d   1      52.351  29.867  53.674  0.00  0.00     0.007 A 
ATOM     18  C   UNL d   1      52.220  30.596  53.296  0.00  0.00     0.025 A 
BRANCH  16  19
ATOM     19  C   UNL d   1      53.253  28.879  54.217  0.00  0.00     0.296 C 
ATOM     20  O   UNL d   1      53.292  28.181  53.791  0.00  0.00    -0.259 OA
BRANCH  19  21
ATOM     21  O   UNL d   1      53.352  28.850  55.043  0.00  0.00    -0.296 OA
ATOM     22  C   UNL d   1      53.455  28.112  55.434  0.00  0.00     0.185 C 
ENDBRANCH  19  21
ENDBRANCH  16  19
ENDBRANCH  12  13
ENDBRANCH  11  12
ENDBRANCH   7  11
BRANCH   4  23
ATOM     23  O   UNL d   1      54.079  34.289  55.128  0.00  0.00    -0.326 OA
ATOM     24  C   UNL d   1      54.672  33.729  55.046  0.00  0.00     0.181 C 
ENDBRANCH   4  23
BRANCH   6  25
ATOM     25  O   UNL d   1      53.265  35.751  54.953  0.00  0.00    -0.326 OA
ATOM     26  C   UNL d   1      52.852  36.458  54.844  0.00  0.00     0.181 C 
ENDBRANCH   6  25
TORSDOF 7
ENDMDL
MODEL 3
REMARK VINA RESULT:      -7.7      1.837      2.889
REMARK  7 active torsions:
REMARK  status: ('A' for Active; 'I' for Inactive)
REMARK    1  A    between atoms: C_4  and  C_10 
REMARK    2  A    between atoms: O_17  and  C_4 
REMARK    3  A    between atoms: O_19  and  C_5 
REMARK    4  A    between atoms: O_20  and  C_7 
REMARK    5  A    between atoms: C_12  and  C_8 
REMARK    6  A    between atoms: O_15  and  C_12 
REMARK    7  A    between atoms: C_16  and  O_15 
ROOT
ATOM      1  C   UNL d   1      53.037  31.634  53.346  0.00  0.00     0.022 A 
ATOM      2  C   UNL d   1      52.387  31.146  53.222  0.00  0.00     0.028 A 
ATOM      3  C   UNL d   1      53.757  31.320  53.632  0.00  0.00     0.005 A 
ATOM      4  C   UNL d   1      52.458  30.343  53.384  0.00  0.00     0.116 A 
ATOM      5  C   UNL d   1      53.823  30.519  53.793  0.00  0.00     0.026 A 
ATOM      6  C   UNL d   1      53.178  30.029  53.670  0.00  0.00     0.116 A 
ATOM      7  C   UNL d   1      52.965  32.434  53.184  0.00  0.00     0.106 A 
ATOM      8  N   UNL d   1      53.614  32.923  53.308  0.00  0.00    -0.242 NA
ATOM      9  C   UNL d   1      54.334  32.608  53.594  0.00  0.00     0.099 A 
ATOM     10  C   UNL d   1      54.400  31.807  53.755  0.00  0.00     0.021 A 
ENDROOT
BRANCH   7  11
ATOM     11  C   UNL d   1      52.244  32.748  52.897  0.00  0.00     0.142 C 
BRANCH  11  12
ATOM     12  O   UNL d   1      52.136  33.560  52.851  0.00  0.00    -0.304 OA
BRANCH  12  13
ATOM     13  C   UNL d   1      51.403  33.872  52.617  0.00  0.00     0.100 A 
ATOM     14  C   UNL d   1      50.783  33.947  53.156  0.00  0.00     0.025 A 
ATOM     15  C   UNL d   1      50.050  34.259  52.922  0.00  0.00     0.007 A 
ATOM     16  C   UNL d   1      49.923  34.503  52.145  0.00  0.00     0.063 A 
ATOM     17  C   UNL d   1      50.542  34.429  51.606  0.00  0.00     0.007 A 
ATOM     18  C   UNL d   1      51.276  34.116  51.840  0.00  0.00     0.025 A 
BRANCH  16  19
ATOM     19  C   UNL d   1      49.187  34.816  51.915  0.00  0.00     0.296 C 
ATOM     20  O   UNL d   1      48.782  35.342  52.394  0.00  0.00    -0.259 OA
BRANCH  19  21
ATOM     21  O   UNL d   1      48.848  34.595  51.187  0.00  0.00    -0.296 OA
ATOM     22  C   UNL d   1      48.097  34.895  50.958  0.00  0.00     0.185 C 
ENDBRANCH  19  21
ENDBRANCH  16  19
ENDBRANCH  12  13
ENDBRANCH  11  12
ENDBRANCH   7  11
BRANCH   4  23
ATOM     23  O   UNL d   1      51.802  29.840  53.260  0.00  0.00    -0.326 OA
ATOM     24  C   UNL d   1      51.068  30.048  53.561  0.00  0.00     0.181 C 
ENDBRANCH   4  23
BRANCH   6  25
ATOM     25  O   UNL d   1      53.251  29.208  53.836  0.00  0.00    -0.326 OA
ATOM     26  C   UNL d   1      53.629  28.979  54.533  0.00  0.00     0.181 C 
ENDBRANCH   6  25
TORSDOF 7
ENDMDL
MODEL 4
REMARK VINA RESULT:      -7.4      1.878      5.936
REMARK  7 active torsions:
REMARK  status: ('A' for Active; 'I' for Inactive)
REMARK    1  A    between atoms: C_4  and  C_10 
REMARK    2  A    between atoms: O_17  and  C_4 
REMARK    3  A    between atoms: O_19  and  C_5 
REMARK    4  A    between atoms: O_20  and  C_7 
REMARK    5  A    between atoms: C_12  and  C_8 
REMARK    6  A    between atoms: O_15  and  C_12 
REMARK    7  A    between atoms: C_16  and  O_15 
ROOT
ATOM      1  C   UNL d   1      48.159  35.676  52.708  0.00  0.00     0.022 A 
ATOM      2  C   UNL d   1      48.121  35.219  52.025  0.00  0.00     0.028 A 
ATOM      3  C   UNL d   1      47.540  36.204  52.900  0.00  0.00     0.005 A 
ATOM      4  C   UNL d   1      47.464  35.289  51.536  0.00  0.00     0.116 A 
ATOM      5  C   UNL d   1      46.887  36.272  52.409  0.00  0.00     0.026 A 
ATOM      6  C   UNL d   1      46.846  35.818  51.728  0.00  0.00     0.116 A 
ATOM      7  C   UNL d   1      48.814  35.605  53.194  0.00  0.00     0.106 A 
ATOM      8  N   UNL d   1      48.852  36.062  53.876  0.00  0.00    -0.242 NA
ATOM      9  C   UNL d   1      48.233  36.590  54.068  0.00  0.00     0.099 A 
ATOM     10  C   UNL d   1      47.580  36.658  53.578  0.00  0.00     0.021 A 
ENDROOT
BRANCH   7  11
ATOM     11  C   UNL d   1      49.433  35.076  53.001  0.00  0.00     0.142 C 
BRANCH  11  12
ATOM     12  O   UNL d   1      50.159  35.135  53.377  0.00  0.00    -0.304 OA
BRANCH  12  13
ATOM     13  C   UNL d   1      50.736  34.547  53.270  0.00  0.00     0.100 A 
ATOM     14  C   UNL d   1      51.497  34.742  53.018  0.00  0.00     0.025 A 
ATOM     15  C   UNL d   1      52.074  34.153  52.911  0.00  0.00     0.007 A 
ATOM     16  C   UNL d   1      51.900  33.359  53.053  0.00  0.00     0.063 A 
ATOM     17  C   UNL d   1      51.139  33.165  53.305  0.00  0.00     0.007 A 
ATOM     18  C   UNL d   1      50.562  33.753  53.412  0.00  0.00     0.025 A 
BRANCH  16  19
ATOM     19  C   UNL d   1      52.481  32.774  52.944  0.00  0.00     0.296 C 
ATOM     20  O   UNL d   1      52.507  32.325  52.260  0.00  0.00    -0.259 OA
BRANCH  19  21
ATOM     21  O   UNL d   1      53.050  32.635  53.536  0.00  0.00    -0.296 OA
ATOM     22  C   UNL d   1      53.516  31.935  53.523  0.00  0.00     0.185 C 
ENDBRANCH  19  21
ENDBRANCH  16  19
ENDBRANCH  12  13
ENDBRANCH  11  12
ENDBRANCH   7  11
BRANCH   4  23
ATOM     23  O   UNL d   1      47.419  34.828  50.841  0.00  0.00    -0.326 OA
ATOM     24  C   UNL d   1      48.014  34.288  50.672  0.00  0.00     0.181 C 
ENDBRANCH   4  23
BRANCH   6  25
ATOM     25  O   UNL d   1      46.174  35.890  51.229  0.00  0.00    -0.326 OA
ATOM     26  C   UNL d   1      45.464  36.154  51.557  0.00  0.00     0.181 C 
ENDBRANCH   6  25
TORSDOF 7
ENDMDL
MODEL 5
REMARK VINA RESULT:      -7.2      1.332      2.110
REMARK  7 active torsions:
REMARK  status: ('A' for Active; 'I' for Inactive)
REMARK    1  A    between atoms: C_4  and  C_10 
REMARK    2  A    between atoms: O_17  and  C_4 
REMARK    3  A    between atoms: O_19  and  C_5 
REMARK    4  A    between atoms: O_20  and  C_7 
REMARK    5  A    between atoms: C_12  and  C_8 
REMARK    6  A    between atoms: O_15  and  C_12 
REMARK    7  A    between atoms: C_16  and  O_15 
ROOT
ATOM      1  C   UNL d   1      52.417  33.870  53.309  0.00  0.00     0.022 A 
ATOM      2  C   UNL d   1      52.241  33.153  52.946  0.00  0.00     0.028 A 
ATOM      3  C   UNL d   1      53.147  33.979  53.702  0.00  0.00     0.005 A 
ATOM      4  C   UNL d   1      52.795  32.546  52.977  0.00  0.00     0.116 A 
ATOM      5  C   UNL d   1      53.696  33.372  53.730  0.00  0.00     0.026 A 
ATOM      6  C   UNL d   1      53.524  32.656  53.370  0.00  0.00     0.116 A 
ATOM      7  C   UNL d   1      51.864  34.473  53.277  0.00  0.00     0.106 A 
ATOM      8  N   UNL d   1      52.040  35.190  53.639  0.00  0.00    -0.242 NA
ATOM      9  C   UNL d   1      52.770  35.300  54.032  0.00  0.00     0.099 A 
ATOM     10  C   UNL d   1      53.319  34.692  54.061  0.00  0.00     0.021 A 
ENDROOT
BRANCH   7  11
ATOM     11  C   UNL d   1      51.134  34.363  52.883  0.00  0.00     0.142 C 
BRANCH  11  12
ATOM     12  O   UNL d   1      50.437  34.628  53.224  0.00  0.00    -0.304 OA
BRANCH  12  13
ATOM     13  C   UNL d   1      49.761  34.746  52.756  0.00  0.00     0.100 A 
ATOM     14  C   UNL d   1      49.132  35.204  53.030  0.00  0.00     0.025 A 
ATOM     15  C   UNL d   1      48.455  35.322  52.562  0.00  0.00     0.007 A 
ATOM     16  C   UNL d   1      48.396  34.985  51.812  0.00  0.00     0.063 A 
ATOM     17  C   UNL d   1      49.025  34.528  51.538  0.00  0.00     0.007 A 
ATOM     18  C   UNL d   1      49.701  34.409  52.006  0.00  0.00     0.025 A 
BRANCH  16  19
ATOM     19  C   UNL d   1      47.716  35.107  51.347  0.00  0.00     0.296 C 
ATOM     20  O   UNL d   1      47.578  34.661  50.674  0.00  0.00    -0.259 OA
BRANCH  19  21
ATOM     21  O   UNL d   1      47.162  35.690  51.562  0.00  0.00    -0.296 OA
ATOM     22  C   UNL d   1      46.376  35.661  51.264  0.00  0.00     0.185 C 
ENDBRANCH  19  21
ENDBRANCH  16  19
ENDBRANCH  12  13
ENDBRANCH  11  12
ENDBRANCH   7  11
BRANCH   4  23
ATOM     23  O   UNL d   1      52.623  31.815  52.612  0.00  0.00    -0.326 OA
ATOM     24  C   UNL d   1      52.111  31.288  52.976  0.00  0.00     0.181 C 
ENDBRANCH   4  23
BRANCH   6  25
ATOM     25  O   UNL d   1      54.091  32.036  53.402  0.00  0.00    -0.326 OA
ATOM     26  C   UNL d   1      54.844  32.204  53.697  0.00  0.00     0.181 C 
ENDBRANCH   6  25
TORSDOF 7
ENDMDL
