MODEL 1
REMARK VINA RESULT:      69.5      0.000      0.000
REMARK  5 active torsions:
REMARK  status: ('A' for Active; 'I' for Inactive)
REMARK    1  A    between atoms: S_2  and  C_1 
REMARK    2  A    between atoms: C_9  and  S_2 
REMARK    3  A    between atoms: C_8  and  N_3 
REMARK    4  A    between atoms: C_7  and  C_8 
REMARK       I    between atoms: N_12  and  C_7 
REMARK    5  A    between atoms: C_14  and  C_9 
ROOT
ATOM      1  C   UNL d   1     -50.884  26.805  33.578  0.00  0.00     0.107 A 
ATOM      2  N   UNL d   1     -51.967  26.029  33.551  0.00  0.00    -0.299 N 
ATOM      3  C   UNL d   1     -51.145  26.018  33.617  0.00  0.00     0.092 A 
ATOM      4  C   UNL d   1     -51.545  27.291  33.489  0.00  0.00     0.028 A 
ATOM      5  C   UNL d   1     -52.216  26.807  33.472  0.00  0.00     0.065 A 
ATOM      6  C   UNL d   1     -51.621  28.108  33.420  0.00  0.00     0.002 A 
ATOM      7  C   UNL d   1     -52.962  27.150  33.387  0.00  0.00     0.018 A 
ATOM      8  C   UNL d   1     -52.370  28.453  33.335  0.00  0.00     0.000 A 
ATOM      9  C   UNL d   1     -53.038  27.966  33.319  0.00  0.00     0.002 A 
ENDROOT
BRANCH   1  10
ATOM     10  S   UNL d   1     -50.095  27.057  33.621  0.00  0.00     0.212 S 
ATOM     11  O   UNL d   1     -50.382  27.781  33.351  0.00  0.00    -0.217 OA
ATOM     12  O   UNL d   1     -49.810  26.328  33.893  0.00  0.00    -0.217 OA
BRANCH  10  13
ATOM     13  C   UNL d   1     -49.311  27.305  33.665  0.00  0.00     0.099 C 
BRANCH  13  14
ATOM     14  C   UNL d   1     -49.038  27.682  34.343  0.00  0.00     0.011 A 
ATOM     15  C   UNL d   1     -49.229  27.376  35.085  0.00  0.00     0.001 A 
ATOM     16  C   UNL d   1     -48.950  27.761  35.770  0.00  0.00     0.000 A 
ATOM     17  C   UNL d   1     -48.484  28.444  35.702  0.00  0.00     0.000 A 
ATOM     18  C   UNL d   1     -48.302  28.737  34.952  0.00  0.00     0.000 A 
ATOM     19  C   UNL d   1     -48.577  28.358  34.280  0.00  0.00     0.001 A 
ENDBRANCH  13  14
ENDBRANCH  10  13
ENDBRANCH   1  10
BRANCH   2  20
ATOM     20  C   UNL d   1     -52.457  25.365  33.563  0.00  0.00     0.142 C 
BRANCH  20  21
ATOM     21  C   UNL d   1     -52.139  24.616  33.441  0.00  0.00     0.283 C 
ATOM     22  N   UNL d   1     -52.629  23.952  33.454  0.00  0.00    -0.268 N 
ATOM     23  C   UNL d   1     -52.314  23.193  33.332  0.00  0.00     0.102 C 
ATOM     24  C   UNL d   1     -53.437  24.038  33.588  0.00  0.00     0.102 C 
ATOM     25  O   UNL d   1     -51.332  24.529  33.307  0.00  0.00    -0.265 OA
ENDBRANCH  20  21
ENDBRANCH   2  20
TORSDOF 5
ENDMDL
MODEL 2
REMARK VINA RESULT:      72.0      2.328      3.058
REMARK  5 active torsions:
REMARK  status: ('A' for Active; 'I' for Inactive)
REMARK    1  A    between atoms: S_2  and  C_1 
REMARK    2  A    between atoms: C_9  and  S_2 
REMARK    3  A    between atoms: C_8  and  N_3 
REMARK    4  A    between atoms: C_7  and  C_8 
REMARK       I    between atoms: N_12  and  C_7 
REMARK    5  A    between atoms: C_14  and  C_9 
ROOT
ATOM      1  C   UNL d   1     -51.335  26.186  35.040  0.00  0.00     0.107 A 
ATOM      2  N   UNL d   1     -51.388  25.403  33.964  0.00  0.00    -0.299 N 
ATOM      3  C   UNL d   1     -51.769  25.583  34.672  0.00  0.00     0.092 A 
ATOM      4  C   UNL d   1     -50.692  26.372  34.557  0.00  0.00     0.028 A 
ATOM      5  C   UNL d   1     -50.727  25.885  33.889  0.00  0.00     0.065 A 
ATOM      6  C   UNL d   1     -50.084  26.920  34.639  0.00  0.00     0.002 A 
ATOM      7  C   UNL d   1     -50.147  25.953  33.307  0.00  0.00     0.018 A 
ATOM      8  C   UNL d   1     -49.500  26.988  34.054  0.00  0.00     0.000 A 
ATOM      9  C   UNL d   1     -49.538  26.500  33.388  0.00  0.00     0.002 A 
ENDROOT
BRANCH   1  10
ATOM     10  S   UNL d   1     -51.517  26.540  35.768  0.00  0.00     0.212 S 
ATOM     11  O   UNL d   1     -52.193  26.068  35.751  0.00  0.00    -0.217 OA
ATOM     12  O   UNL d   1     -50.837  27.011  35.782  0.00  0.00    -0.217 OA
BRANCH  10  13
ATOM     13  C   UNL d   1     -51.696  26.892  36.491  0.00  0.00     0.099 C 
BRANCH  13  14
ATOM     14  C   UNL d   1     -51.776  26.427  37.164  0.00  0.00     0.011 A 
ATOM     15  C   UNL d   1     -52.393  25.881  37.213  0.00  0.00     0.001 A 
ATOM     16  C   UNL d   1     -52.471  25.412  37.898  0.00  0.00     0.000 A 
ATOM     17  C   UNL d   1     -51.932  25.495  38.523  0.00  0.00     0.000 A 
ATOM     18  C   UNL d   1     -51.320  26.046  38.458  0.00  0.00     0.000 A 
ATOM     19  C   UNL d   1     -51.245  26.507  37.785  0.00  0.00     0.001 A 
ENDBRANCH  13  14
ENDBRANCH  10  13
ENDBRANCH   1  10
BRANCH   2  20
ATOM     20  C   UNL d   1     -51.631  24.832  33.420  0.00  0.00     0.142 C 
BRANCH  20  21
ATOM     21  C   UNL d   1     -52.396  24.529  33.455  0.00  0.00     0.283 C 
ATOM     22  N   UNL d   1     -52.521  23.716  33.399  0.00  0.00    -0.268 N 
ATOM     23  C   UNL d   1     -53.290  23.404  33.434  0.00  0.00     0.102 C 
ATOM     24  C   UNL d   1     -51.880  23.205  33.307  0.00  0.00     0.102 C 
ATOM     25  O   UNL d   1     -53.036  25.038  33.547  0.00  0.00    -0.265 OA
ENDBRANCH  20  21
ENDBRANCH   2  20
TORSDOF 5
ENDMDL
