MODEL 1
REMARK VINA RESULT:      -5.5      0.000      0.000
REMARK  5 active torsions:
REMARK  status: ('A' for Active; 'I' for Inactive)
REMARK    1  A    between atoms: C_3  and  S_1 
REMARK    2  A    between atoms: N_5  and  S_1 
REMARK    3  A    between atoms: C_2  and  C_8 
REMARK       I    between atoms: N_4  and  C_2 
REMARK    4  A    between atoms: C_9  and  N_4 
REMARK    5  A    between atoms: O_17  and  C_16 
ROOT
ATOM      1  C   UNL d   1      55.990   0.065  32.990  0.00  0.00     0.104 A 
ATOM      2  C   UNL d   1      56.986  -0.210  31.667  0.00  0.00     0.058 A 
ATOM      3  C   UNL d   1      56.143  -0.672  32.735  0.00  0.00     0.013 A 
ATOM      4  C   UNL d   1      56.332   0.681  32.589  0.00  0.00     0.013 A 
ATOM      5  C   UNL d   1      56.825   0.579  31.936  0.00  0.00     0.005 A 
ATOM      6  C   UNL d   1      56.635  -0.811  32.081  0.00  0.00     0.005 A 
ENDROOT
BRANCH   2   7
ATOM      7  C   UNL d   1      57.489  -0.353  30.998  0.00  0.00     0.279 C 
ATOM      8  N   UNL d   1      57.900   0.215  30.652  0.00  0.00    -0.208 NA
ATOM      9  O   UNL d   1      57.526  -1.156  30.716  0.00  0.00    -0.265 OA
BRANCH   8  10
ATOM     10  C   UNL d   1      58.381   0.048  30.003  0.00  0.00     0.087 A 
ATOM     11  C   UNL d   1      59.158  -0.141  30.124  0.00  0.00     0.043 A 
ATOM     12  C   UNL d   1      59.638  -0.308  29.475  0.00  0.00     0.096 A 
ATOM     13  C   UNL d   1      59.342  -0.286  28.705  0.00  0.00     0.024 A 
ATOM     14  C   UNL d   1      58.537  -0.089  28.591  0.00  0.00     0.004 A 
ATOM     15  C   UNL d   1      58.061   0.077  29.244  0.00  0.00     0.019 A 
BRANCH  12  16
ATOM     16  O   UNL d   1      60.248  -0.457  29.572  0.00  0.00    -0.328 OA
ATOM     17  C   UNL d   1      60.864  -0.537  29.041  0.00  0.00     0.181 C 
ENDBRANCH  12  16
ENDBRANCH   8  10
ENDBRANCH   2   7
BRANCH   1  18
ATOM     18  S   UNL d   1      55.475   0.286  33.680  0.00  0.00     0.271 S 
ATOM     19  O   UNL d   1      54.790  -0.104  33.382  0.00  0.00    -0.200 OA
ATOM     20  O   UNL d   1      56.134   0.656  33.960  0.00  0.00    -0.200 OA
BRANCH  18  21
ATOM     21  N   UNL d   1      55.023   0.538  34.391  0.00  0.00    -0.226 N 
ATOM     22  C   UNL d   1      55.418   0.632  35.122  0.00  0.00     0.111 C 
ATOM     23  C   UNL d   1      54.212   0.682  34.337  0.00  0.00     0.111 C 
ENDBRANCH  18  21
ENDBRANCH   1  18
TORSDOF 5
ENDMDL
MODEL 2
REMARK VINA RESULT:      -3.1      0.832      1.097
REMARK  5 active torsions:
REMARK  status: ('A' for Active; 'I' for Inactive)
REMARK    1  A    between atoms: C_3  and  S_1 
REMARK    2  A    between atoms: N_5  and  S_1 
REMARK    3  A    between atoms: C_2  and  C_8 
REMARK       I    between atoms: N_4  and  C_2 
REMARK    4  A    between atoms: C_9  and  N_4 
REMARK    5  A    between atoms: O_17  and  C_16 
ROOT
ATOM      1  C   UNL d   1      55.871   0.091  32.929  0.00  0.00     0.104 A 
ATOM      2  C   UNL d   1      57.065  -0.216  31.791  0.00  0.00     0.058 A 
ATOM      3  C   UNL d   1      56.286   0.682  32.597  0.00  0.00     0.013 A 
ATOM      4  C   UNL d   1      56.044  -0.667  32.700  0.00  0.00     0.013 A 
ATOM      5  C   UNL d   1      56.624  -0.851  32.143  0.00  0.00     0.005 A 
ATOM      6  C   UNL d   1      56.878   0.533  32.034  0.00  0.00     0.005 A 
ENDROOT
BRANCH   2   7
ATOM      7  C   UNL d   1      57.670  -0.369  31.215  0.00  0.00     0.279 C 
ATOM      8  N   UNL d   1      57.509  -0.500  30.461  0.00  0.00    -0.208 NA
ATOM      9  O   UNL d   1      58.473  -0.372  31.500  0.00  0.00    -0.265 OA
BRANCH   8  10
ATOM     10  C   UNL d   1      58.118  -0.646  29.923  0.00  0.00     0.087 A 
ATOM     11  C   UNL d   1      58.536  -1.335  29.975  0.00  0.00     0.043 A 
ATOM     12  C   UNL d   1      59.144  -1.480  29.437  0.00  0.00     0.096 A 
ATOM     13  C   UNL d   1      59.333  -0.936  28.846  0.00  0.00     0.024 A 
ATOM     14  C   UNL d   1      58.893  -0.226  28.801  0.00  0.00     0.004 A 
ATOM     15  C   UNL d   1      58.287  -0.085  29.342  0.00  0.00     0.019 A 
BRANCH  12  16
ATOM     16  O   UNL d   1      59.472  -2.022  29.480  0.00  0.00    -0.328 OA
ATOM     17  C   UNL d   1      60.086  -2.307  29.021  0.00  0.00     0.181 C 
ENDBRANCH  12  16
ENDBRANCH   8  10
ENDBRANCH   2   7
BRANCH   1  18
ATOM     18  S   UNL d   1      55.227   0.179  33.536  0.00  0.00     0.271 S 
ATOM     19  O   UNL d   1      54.676  -0.308  33.123  0.00  0.00    -0.200 OA
ATOM     20  O   UNL d   1      55.758   0.643  33.926  0.00  0.00    -0.200 OA
BRANCH  18  21
ATOM     21  N   UNL d   1      54.636   0.307  34.173  0.00  0.00    -0.226 N 
ATOM     22  C   UNL d   1      53.820   0.238  34.003  0.00  0.00     0.111 C 
ATOM     23  C   UNL d   1      54.884   0.496  34.938  0.00  0.00     0.111 C 
ENDBRANCH  18  21
ENDBRANCH   1  18
TORSDOF 5
ENDMDL
MODEL 3
REMARK VINA RESULT:      -2.5      0.943      1.298
REMARK  5 active torsions:
REMARK  status: ('A' for Active; 'I' for Inactive)
REMARK    1  A    between atoms: C_3  and  S_1 
REMARK    2  A    between atoms: N_5  and  S_1 
REMARK    3  A    between atoms: C_2  and  C_8 
REMARK       I    between atoms: N_4  and  C_2 
REMARK    4  A    between atoms: C_9  and  N_4 
REMARK    5  A    between atoms: O_17  and  C_16 
ROOT
ATOM      1  C   UNL d   1      56.475  -0.048  32.419  0.00  0.00     0.104 A 
ATOM      2  C   UNL d   1      57.542  -0.194  31.132  0.00  0.00     0.058 A 
ATOM      3  C   UNL d   1      57.003   0.522  32.255  0.00  0.00     0.013 A 
ATOM      4  C   UNL d   1      56.468  -0.704  31.944  0.00  0.00     0.013 A 
ATOM      5  C   UNL d   1      56.979  -0.806  31.304  0.00  0.00     0.005 A 
ATOM      6  C   UNL d   1      57.532   0.453  31.619  0.00  0.00     0.005 A 
ENDROOT
BRANCH   2   7
ATOM      7  C   UNL d   1      58.083  -0.265  30.482  0.00  0.00     0.279 C 
ATOM      8  N   UNL d   1      58.686  -0.763  30.488  0.00  0.00    -0.208 NA
ATOM      9  O   UNL d   1      57.936   0.238  29.810  0.00  0.00    -0.265 OA
BRANCH   8  10
ATOM     10  C   UNL d   1      59.196  -0.811  29.841  0.00  0.00     0.087 A 
ATOM     11  C   UNL d   1      59.878  -0.378  29.842  0.00  0.00     0.043 A 
ATOM     12  C   UNL d   1      60.388  -0.426  29.195  0.00  0.00     0.096 A 
ATOM     13  C   UNL d   1      60.215  -0.908  28.548  0.00  0.00     0.024 A 
ATOM     14  C   UNL d   1      59.506  -1.352  28.558  0.00  0.00     0.004 A 
ATOM     15  C   UNL d   1      59.000  -1.300  29.207  0.00  0.00     0.019 A 
BRANCH  12  16
ATOM     16  O   UNL d   1      60.924  -0.085  29.197  0.00  0.00    -0.328 OA
ATOM     17  C   UNL d   1      61.095   0.630  29.554  0.00  0.00     0.181 C 
ENDBRANCH  12  16
ENDBRANCH   8  10
ENDBRANCH   2   7
BRANCH   1  18
ATOM     18  S   UNL d   1      55.882  -0.039  33.082  0.00  0.00     0.271 S 
ATOM     19  O   UNL d   1      56.455  -0.155  33.689  0.00  0.00    -0.200 OA
ATOM     20  O   UNL d   1      55.339   0.072  32.497  0.00  0.00    -0.200 OA
BRANCH  18  21
ATOM     21  N   UNL d   1      55.245  -0.020  33.687  0.00  0.00    -0.226 N 
ATOM     22  C   UNL d   1      55.063  -0.712  34.120  0.00  0.00     0.111 C 
ATOM     23  C   UNL d   1      54.826   0.678  33.827  0.00  0.00     0.111 C 
ENDBRANCH  18  21
ENDBRANCH   1  18
TORSDOF 5
ENDMDL
