MODEL 1
REMARK VINA RESULT:      54.3      0.000      0.000
REMARK  4 active torsions:
REMARK  status: ('A' for Active; 'I' for Inactive)
REMARK    1  A    between atoms: C_2  and  C_1 
REMARK    2  A    between atoms: O_18  and  C_16 
REMARK    3  A    between atoms: C_17  and  C_19 
REMARK    4  A    between atoms: C_19  and  O_18 
ROOT
ATOM      1  C   UNL d   1      58.864  49.683  51.843  0.00  0.00     0.030 A 
ATOM      2  C   UNL d   1      59.671  49.685  51.667  0.00  0.00     0.027 A 
ATOM      3  C   UNL d   1      59.159  49.697  53.235  0.00  0.00     0.300 A 
ATOM      4  C   UNL d   1      58.614  49.689  52.629  0.00  0.00     0.071 A 
ATOM      5  C   UNL d   1      60.223  49.693  52.281  0.00  0.00     0.103 A 
ATOM      6  O   UNL d   1      59.972  49.700  53.067  0.00  0.00    -0.273 OA
ATOM      7  C   UNL d   1      59.929  49.678  50.873  0.00  0.00     0.027 A 
ATOM      8  O   UNL d   1      58.905  49.704  54.016  0.00  0.00    -0.259 OA
ATOM      9  C   UNL d   1      61.029  49.695  52.105  0.00  0.00     0.027 A 
ATOM     10  C   UNL d   1      60.726  49.680  50.712  0.00  0.00     0.100 A 
ATOM     11  C   UNL d   1      61.282  49.689  51.323  0.00  0.00     0.027 A 
ENDROOT
BRANCH   1  12
ATOM     12  C   UNL d   1      58.309  49.674  51.217  0.00  0.00     0.100 A 
ATOM     13  O   UNL d   1      57.490  49.690  51.289  0.00  0.00    -0.307 OA
ATOM     14  C   UNL d   1      57.174  49.674  50.534  0.00  0.00     0.100 A 
ATOM     15  C   UNL d   1      56.395  49.679  50.264  0.00  0.00     0.025 A 
ATOM     16  C   UNL d   1      57.792  49.647  49.987  0.00  0.00     0.025 A 
ATOM     17  C   UNL d   1      56.240  49.658  49.453  0.00  0.00     0.002 A 
ATOM     18  C   UNL d   1      56.865  49.632  48.913  0.00  0.00     0.000 A 
ATOM     19  C   UNL d   1      57.640  49.627  49.189  0.00  0.00     0.002 A 
ATOM     20  C   UNL d   1      58.500  49.648  50.418  0.00  0.00     0.027 A 
ENDBRANCH   1  12
BRANCH  10  21
ATOM     21  O   UNL d   1      60.981  49.674  49.923  0.00  0.00    -0.302 OA
BRANCH  21  22
ATOM     22  C   UNL d   1      61.545  49.136  49.684  0.00  0.00     0.165 C 
BRANCH  22  23
ATOM     23  C   UNL d   1      61.368  48.335  49.662  0.00  0.00     0.220 C 
ATOM     24  O   UNL d   1      61.878  47.793  50.018  0.00  0.00    -0.284 OA
ATOM     25  C   UNL d   1      60.685  48.066  49.285  0.00  0.00     0.048 C 
ENDBRANCH  22  23
ENDBRANCH  21  22
ENDBRANCH  10  21
TORSDOF 4
ENDMDL
