MODEL 1
REMARK VINA RESULT:      25.6      0.000      0.000
REMARK  4 active torsions:
REMARK  status: ('A' for Active; 'I' for Inactive)
REMARK    1  A    between atoms: C_6  and  C_1 
REMARK    2  A    between atoms: C_13  and  C_2 
REMARK    3  A    between atoms: P_4  and  C_3 
REMARK    4  A    between atoms: C_17  and  C_13 
ROOT
ATOM      1  C   UNL d   1     -51.146  24.989  33.473  0.00  0.00     0.112 A 
ATOM      2  C   UNL d   1     -51.720  24.406  33.497  0.00  0.00     0.052 A 
ATOM      3  N   UNL d   1     -50.404  24.619  33.506  0.00  0.00    -0.217 NA
ATOM      4  C   UNL d   1     -50.529  23.803  33.551  0.00  0.00     0.215 A 
ATOM      5  S   UNL d   1     -51.339  23.673  33.545  0.00  0.00    -0.045 SA
ATOM      6  N   UNL d   1     -49.935  23.211  33.595  0.00  0.00    -0.120 N 
ENDROOT
BRANCH   1   7
ATOM      7  C   UNL d   1     -51.313  25.798  33.424  0.00  0.00     0.119 A 
ATOM      8  O   UNL d   1     -50.732  26.383  33.441  0.00  0.00    -0.297 OA
ATOM      9  C   UNL d   1     -51.104  27.117  33.380  0.00  0.00     0.191 A 
ATOM     10  C   UNL d   1     -51.916  26.986  33.325  0.00  0.00     0.036 A 
ATOM     11  C   UNL d   1     -52.043  26.173  33.352  0.00  0.00     0.029 A 
BRANCH   9  12
ATOM     12  P   UNL d   1     -50.734  27.860  33.374  0.00  0.00     0.321 P 
ATOM     13  O   UNL d   1     -51.479  28.227  33.401  0.00  0.00    -0.635 OA
ATOM     14  O   UNL d   1     -49.993  27.490  33.347  0.00  0.00    -0.635 OA
ATOM     15  O   UNL d   1     -50.362  28.600  33.368  0.00  0.00    -0.635 OA
ENDBRANCH   9  12
ENDBRANCH   1   7
BRANCH   2  16
ATOM     16  C   UNL d   1     -52.538  24.530  33.476  0.00  0.00     0.008 C 
BRANCH  16  17
ATOM     17  C   UNL d   1     -53.052  23.943  33.745  0.00  0.00     0.001 C 
ATOM     18  C   UNL d   1     -53.058  23.193  33.378  0.00  0.00     0.000 C 
ATOM     19  C   UNL d   1     -53.559  24.099  34.376  0.00  0.00     0.000 C 
ENDBRANCH  16  17
ENDBRANCH   2  16
TORSDOF 4
ENDMDL
