MODEL 1
REMARK VINA RESULT:      -8.7      0.000      0.000
REMARK  9 active torsions:
REMARK  status: ('A' for Active; 'I' for Inactive)
REMARK    1  A    between atoms: N_5  and  S_1 
REMARK    2  A    between atoms: C_8  and  S_1 
REMARK    3  A    between atoms: C_2  and  N_10 
REMARK    4  A    between atoms: C_9  and  N_5 
REMARK    5  A    between atoms: C_25  and  N_5 
REMARK    6  A    between atoms: C_13  and  C_9 
REMARK    7  A    between atoms: N_10  and  O_14 
REMARK    8  A    between atoms: C_17  and  C_13 
REMARK    9  A    between atoms: O_14  and  C_17 
ROOT
ATOM      1  C   UNL d   1      50.300  34.269  53.161  0.00  0.00     0.240 C 
ATOM      2  O   UNL d   1      49.806  33.613  53.276  0.00  0.00    -0.283 OA
ENDROOT
BRANCH   1   3
ATOM      3  C   UNL d   1      50.920  33.718  53.201  0.00  0.00     0.136 C 
BRANCH   3   4
ATOM      4  N   UNL d   1      51.680  33.948  52.968  0.00  0.00    -0.226 N 
BRANCH   4   5
ATOM      5  S   UNL d   1      52.344  33.672  53.381  0.00  0.00     0.271 S 
ATOM      6  O   UNL d   1      52.229  33.071  52.822  0.00  0.00    -0.200 OA
ATOM      7  O   UNL d   1      52.626  34.142  53.998  0.00  0.00    -0.200 OA
BRANCH   5   8
ATOM      8  C   UNL d   1      52.964  33.616  53.917  0.00  0.00     0.104 A 
ATOM      9  C   UNL d   1      53.178  34.267  54.369  0.00  0.00     0.013 A 
ATOM     10  C   UNL d   1      53.804  34.208  54.909  0.00  0.00     0.001 A 
ATOM     11  C   UNL d   1      54.213  33.490  54.992  0.00  0.00     0.000 A 
ATOM     12  C   UNL d   1      53.955  32.869  54.513  0.00  0.00     0.001 A 
ATOM     13  C   UNL d   1      54.840  33.408  55.524  0.00  0.00     0.000 C 
ATOM     14  C   UNL d   1      53.343  32.888  53.969  0.00  0.00     0.013 A 
ENDBRANCH   5   8
ENDBRANCH   4   5
BRANCH   4  15
ATOM     15  C   UNL d   1      51.945  34.438  52.359  0.00  0.00     0.092 C 
ATOM     16  C   UNL d   1      51.784  34.238  51.574  0.00  0.00     0.021 C 
ENDBRANCH   4  15
ENDBRANCH   3   4
ENDBRANCH   1   3
BRANCH   1  17
ATOM     17  C   UNL d   1      49.983  35.024  53.078  0.00  0.00     0.193 C 
BRANCH  17  18
ATOM     18  O   UNL d   1      49.165  35.132  53.141  0.00  0.00    -0.206 OA
BRANCH  18  19
ATOM     19  N   UNL d   1      48.835  35.875  53.015  0.00  0.00    -0.126 NA
BRANCH  19  20
ATOM     20  C   UNL d   1      48.016  35.980  53.060  0.00  0.00     0.108 A 
ATOM     21  C   UNL d   1      47.594  36.232  53.727  0.00  0.00     0.020 A 
ATOM     22  C   UNL d   1      46.794  36.259  53.526  0.00  0.00     0.002 A 
ATOM     23  C   UNL d   1      47.834  36.439  54.489  0.00  0.00     0.002 A 
ATOM     24  C   UNL d   1      46.235  36.494  54.087  0.00  0.00     0.000 A 
ATOM     25  C   UNL d   1      46.713  36.028  52.741  0.00  0.00     0.002 A 
ATOM     26  C   UNL d   1      46.476  36.700  54.847  0.00  0.00     0.000 A 
ATOM     27  C   UNL d   1      47.275  36.673  55.049  0.00  0.00     0.000 A 
ATOM     28  C   UNL d   1      47.468  35.856  52.456  0.00  0.00     0.020 A 
ATOM     29  C   UNL d   1      46.060  35.948  52.246  0.00  0.00     0.000 A 
ATOM     30  C   UNL d   1      47.571  35.606  51.679  0.00  0.00     0.002 A 
ATOM     31  C   UNL d   1      46.918  35.526  51.182  0.00  0.00     0.000 A 
ATOM     32  C   UNL d   1      46.159  35.698  51.468  0.00  0.00     0.000 A 
ENDBRANCH  19  20
ENDBRANCH  18  19
ENDBRANCH  17  18
ENDBRANCH   1  17
TORSDOF 9
ENDMDL
MODEL 2
REMARK VINA RESULT:      -8.6      0.052      1.654
REMARK  9 active torsions:
REMARK  status: ('A' for Active; 'I' for Inactive)
REMARK    1  A    between atoms: N_5  and  S_1 
REMARK    2  A    between atoms: C_8  and  S_1 
REMARK    3  A    between atoms: C_2  and  N_10 
REMARK    4  A    between atoms: C_9  and  N_5 
REMARK    5  A    between atoms: C_25  and  N_5 
REMARK    6  A    between atoms: C_13  and  C_9 
REMARK    7  A    between atoms: N_10  and  O_14 
REMARK    8  A    between atoms: C_17  and  C_13 
REMARK    9  A    between atoms: O_14  and  C_17 
ROOT
ATOM      1  C   UNL d   1      50.255  34.252  53.144  0.00  0.00     0.240 C 
ATOM      2  O   UNL d   1      49.767  33.612  53.345  0.00  0.00    -0.283 OA
ENDROOT
BRANCH   1   3
ATOM      3  C   UNL d   1      50.877  33.707  53.219  0.00  0.00     0.136 C 
BRANCH   3   4
ATOM      4  N   UNL d   1      51.636  33.924  52.967  0.00  0.00    -0.226 N 
BRANCH   4   5
ATOM      5  S   UNL d   1      52.305  33.655  53.377  0.00  0.00     0.271 S 
ATOM      6  O   UNL d   1      52.202  33.060  52.808  0.00  0.00    -0.200 OA
ATOM      7  O   UNL d   1      52.576  34.121  54.001  0.00  0.00    -0.200 OA
BRANCH   5   8
ATOM      8  C   UNL d   1      52.924  33.603  53.913  0.00  0.00     0.104 A 
ATOM      9  C   UNL d   1      53.133  34.255  54.366  0.00  0.00     0.013 A 
ATOM     10  C   UNL d   1      53.758  34.201  54.907  0.00  0.00     0.001 A 
ATOM     11  C   UNL d   1      54.173  33.486  54.990  0.00  0.00     0.000 A 
ATOM     12  C   UNL d   1      53.920  32.864  54.509  0.00  0.00     0.001 A 
ATOM     13  C   UNL d   1      54.800  33.408  55.522  0.00  0.00     0.000 C 
ATOM     14  C   UNL d   1      53.308  32.878  53.965  0.00  0.00     0.013 A 
ENDBRANCH   5   8
ENDBRANCH   4   5
BRANCH   4  15
ATOM     15  C   UNL d   1      51.894  34.392  52.338  0.00  0.00     0.092 C 
ATOM     16  C   UNL d   1      51.703  34.177  51.563  0.00  0.00     0.021 C 
ENDBRANCH   4  15
ENDBRANCH   3   4
ENDBRANCH   1   3
BRANCH   1  17
ATOM     17  C   UNL d   1      49.933  34.994  52.992  0.00  0.00     0.193 C 
BRANCH  17  18
ATOM     18  O   UNL d   1      49.133  35.131  53.150  0.00  0.00    -0.206 OA
BRANCH  18  19
ATOM     19  N   UNL d   1      48.808  35.877  53.024  0.00  0.00    -0.126 NA
BRANCH  19  20
ATOM     20  C   UNL d   1      47.991  35.990  53.080  0.00  0.00     0.108 A 
ATOM     21  C   UNL d   1      47.441  35.874  52.473  0.00  0.00     0.020 A 
ATOM     22  C   UNL d   1      46.692  36.051  52.770  0.00  0.00     0.002 A 
ATOM     23  C   UNL d   1      47.525  35.629  51.689  0.00  0.00     0.002 A 
ATOM     24  C   UNL d   1      46.028  35.984  52.284  0.00  0.00     0.000 A 
ATOM     25  C   UNL d   1      46.769  36.277  53.557  0.00  0.00     0.002 A 
ATOM     26  C   UNL d   1      46.113  35.740  51.501  0.00  0.00     0.000 A 
ATOM     27  C   UNL d   1      46.861  35.562  51.203  0.00  0.00     0.000 A 
ATOM     28  C   UNL d   1      47.571  36.239  53.746  0.00  0.00     0.020 A 
ATOM     29  C   UNL d   1      46.224  36.512  54.128  0.00  0.00     0.000 A 
ATOM     30  C   UNL d   1      47.829  36.435  54.502  0.00  0.00     0.002 A 
ATOM     31  C   UNL d   1      47.284  36.670  55.075  0.00  0.00     0.000 A 
ATOM     32  C   UNL d   1      46.478  36.709  54.886  0.00  0.00     0.000 A 
ENDBRANCH  19  20
ENDBRANCH  18  19
ENDBRANCH  17  18
ENDBRANCH   1  17
TORSDOF 9
ENDMDL
MODEL 3
REMARK VINA RESULT:      -8.1      1.425      6.510
REMARK  9 active torsions:
REMARK  status: ('A' for Active; 'I' for Inactive)
REMARK    1  A    between atoms: N_5  and  S_1 
REMARK    2  A    between atoms: C_8  and  S_1 
REMARK    3  A    between atoms: C_2  and  N_10 
REMARK    4  A    between atoms: C_9  and  N_5 
REMARK    5  A    between atoms: C_25  and  N_5 
REMARK    6  A    between atoms: C_13  and  C_9 
REMARK    7  A    between atoms: N_10  and  O_14 
REMARK    8  A    between atoms: C_17  and  C_13 
REMARK    9  A    between atoms: O_14  and  C_17 
ROOT
ATOM      1  C   UNL d   1      50.475  34.265  52.743  0.00  0.00     0.240 C 
ATOM      2  O   UNL d   1      50.264  34.213  53.543  0.00  0.00    -0.283 OA
ENDROOT
BRANCH   1   3
ATOM      3  C   UNL d   1      49.771  34.697  52.660  0.00  0.00     0.136 C 
BRANCH   3   4
ATOM      4  N   UNL d   1      49.344  34.640  51.953  0.00  0.00    -0.226 N 
BRANCH   4   5
ATOM      5  S   UNL d   1      48.578  34.954  51.901  0.00  0.00     0.271 S 
ATOM      6  O   UNL d   1      48.584  34.414  51.271  0.00  0.00    -0.200 OA
ATOM      7  O   UNL d   1      48.368  35.526  52.457  0.00  0.00    -0.200 OA
BRANCH   5   8
ATOM      8  C   UNL d   1      47.903  35.397  52.051  0.00  0.00     0.104 A 
ATOM      9  C   UNL d   1      47.940  36.049  52.548  0.00  0.00     0.013 A 
ATOM     10  C   UNL d   1      47.258  36.495  52.698  0.00  0.00     0.001 A 
ATOM     11  C   UNL d   1      46.538  36.280  52.345  0.00  0.00     0.000 A 
ATOM     12  C   UNL d   1      46.559  35.616  51.854  0.00  0.00     0.001 A 
ATOM     13  C   UNL d   1      45.844  36.709  52.479  0.00  0.00     0.000 C 
ATOM     14  C   UNL d   1      47.211  35.151  51.682  0.00  0.00     0.013 A 
ENDBRANCH   5   8
ENDBRANCH   4   5
BRANCH   4  15
ATOM     15  C   UNL d   1      49.532  34.308  51.220  0.00  0.00     0.092 C 
ATOM     16  C   UNL d   1      49.965  34.748  50.672  0.00  0.00     0.021 C 
ENDBRANCH   4  15
ENDBRANCH   3   4
ENDBRANCH   1   3
BRANCH   1  17
ATOM     17  C   UNL d   1      51.170  33.919  52.468  0.00  0.00     0.193 C 
BRANCH  17  18
ATOM     18  O   UNL d   1      51.668  33.528  53.001  0.00  0.00    -0.206 OA
BRANCH  18  19
ATOM     19  N   UNL d   1      52.446  33.359  52.791  0.00  0.00    -0.126 NA
BRANCH  19  20
ATOM     20  C   UNL d   1      52.920  32.896  53.286  0.00  0.00     0.108 A 
ATOM     21  C   UNL d   1      52.988  32.071  53.262  0.00  0.00     0.020 A 
ATOM     22  C   UNL d   1      53.518  31.843  53.852  0.00  0.00     0.002 A 
ATOM     23  C   UNL d   1      52.638  31.500  52.780  0.00  0.00     0.002 A 
ATOM     24  C   UNL d   1      53.697  31.044  53.960  0.00  0.00     0.000 A 
ATOM     25  C   UNL d   1      53.780  32.516  54.244  0.00  0.00     0.002 A 
ATOM     26  C   UNL d   1      53.346  30.474  53.478  0.00  0.00     0.000 A 
ATOM     27  C   UNL d   1      52.817  30.701  52.888  0.00  0.00     0.000 A 
ATOM     28  C   UNL d   1      53.410  33.165  53.893  0.00  0.00     0.020 A 
ATOM     29  C   UNL d   1      54.303  32.632  54.870  0.00  0.00     0.000 A 
ATOM     30  C   UNL d   1      53.561  33.926  54.166  0.00  0.00     0.002 A 
ATOM     31  C   UNL d   1      54.084  34.043  54.792  0.00  0.00     0.000 A 
ATOM     32  C   UNL d   1      54.456  33.392  55.145  0.00  0.00     0.000 A 
ENDBRANCH  19  20
ENDBRANCH  18  19
ENDBRANCH  17  18
ENDBRANCH   1  17
TORSDOF 9
ENDMDL
MODEL 4
REMARK VINA RESULT:      -6.6      1.425      6.358
REMARK  9 active torsions:
REMARK  status: ('A' for Active; 'I' for Inactive)
REMARK    1  A    between atoms: N_5  and  S_1 
REMARK    2  A    between atoms: C_8  and  S_1 
REMARK    3  A    between atoms: C_2  and  N_10 
REMARK    4  A    between atoms: C_9  and  N_5 
REMARK    5  A    between atoms: C_25  and  N_5 
REMARK    6  A    between atoms: C_13  and  C_9 
REMARK    7  A    between atoms: N_10  and  O_14 
REMARK    8  A    between atoms: C_17  and  C_13 
REMARK    9  A    between atoms: O_14  and  C_17 
ROOT
ATOM      1  C   UNL d   1      50.477  34.266  52.743  0.00  0.00     0.240 C 
ATOM      2  O   UNL d   1      50.264  34.213  53.543  0.00  0.00    -0.283 OA
ENDROOT
BRANCH   1   3
ATOM      3  C   UNL d   1      49.773  34.699  52.659  0.00  0.00     0.136 C 
BRANCH   3   4
ATOM      4  N   UNL d   1      49.349  34.645  51.951  0.00  0.00    -0.226 N 
BRANCH   4   5
ATOM      5  S   UNL d   1      48.583  34.958  51.898  0.00  0.00     0.271 S 
ATOM      6  O   UNL d   1      48.591  34.421  51.266  0.00  0.00    -0.200 OA
ATOM      7  O   UNL d   1      48.370  35.527  52.456  0.00  0.00    -0.200 OA
BRANCH   5   8
ATOM      8  C   UNL d   1      47.907  35.400  52.048  0.00  0.00     0.104 A 
ATOM      9  C   UNL d   1      47.943  36.050  52.548  0.00  0.00     0.013 A 
ATOM     10  C   UNL d   1      47.259  36.495  52.697  0.00  0.00     0.001 A 
ATOM     11  C   UNL d   1      46.540  36.281  52.341  0.00  0.00     0.000 A 
ATOM     12  C   UNL d   1      46.563  35.619  51.848  0.00  0.00     0.001 A 
ATOM     13  C   UNL d   1      45.846  36.709  52.476  0.00  0.00     0.000 C 
ATOM     14  C   UNL d   1      47.216  35.155  51.676  0.00  0.00     0.013 A 
ENDBRANCH   5   8
ENDBRANCH   4   5
BRANCH   4  15
ATOM     15  C   UNL d   1      49.540  34.316  51.217  0.00  0.00     0.092 C 
ATOM     16  C   UNL d   1      49.974  34.759  50.671  0.00  0.00     0.021 C 
ENDBRANCH   4  15
ENDBRANCH   3   4
ENDBRANCH   1   3
BRANCH   1  17
ATOM     17  C   UNL d   1      51.172  33.919  52.469  0.00  0.00     0.193 C 
BRANCH  17  18
ATOM     18  O   UNL d   1      51.667  33.525  53.001  0.00  0.00    -0.206 OA
BRANCH  18  19
ATOM     19  N   UNL d   1      52.446  33.356  52.794  0.00  0.00    -0.126 NA
BRANCH  19  20
ATOM     20  C   UNL d   1      52.916  32.888  53.288  0.00  0.00     0.108 A 
ATOM     21  C   UNL d   1      53.409  33.164  53.894  0.00  0.00     0.020 A 
ATOM     22  C   UNL d   1      53.773  32.510  54.243  0.00  0.00     0.002 A 
ATOM     23  C   UNL d   1      53.572  33.923  54.173  0.00  0.00     0.002 A 
ATOM     24  C   UNL d   1      54.300  32.616  54.870  0.00  0.00     0.000 A 
ATOM     25  C   UNL d   1      53.513  31.830  53.861  0.00  0.00     0.002 A 
ATOM     26  C   UNL d   1      54.463  33.375  55.147  0.00  0.00     0.000 A 
ATOM     27  C   UNL d   1      54.099  34.029  54.800  0.00  0.00     0.000 A 
ATOM     28  C   UNL d   1      52.984  32.066  53.272  0.00  0.00     0.020 A 
ATOM     29  C   UNL d   1      53.681  31.031  53.964  0.00  0.00     0.000 A 
ATOM     30  C   UNL d   1      52.625  31.506  52.789  0.00  0.00     0.002 A 
ATOM     31  C   UNL d   1      52.793  30.705  52.891  0.00  0.00     0.000 A 
ATOM     32  C   UNL d   1      53.324  30.467  53.482  0.00  0.00     0.000 A 
ENDBRANCH  19  20
ENDBRANCH  18  19
ENDBRANCH  17  18
ENDBRANCH   1  17
TORSDOF 9
ENDMDL
