MODEL 1
REMARK VINA RESULT:      69.3      0.000      0.000
REMARK  6 active torsions:
REMARK  status: ('A' for Active; 'I' for Inactive)
REMARK    1  A    between atoms: C_9  and  N_1 
REMARK    2  A    between atoms: N_2  and  C_8 
REMARK       I    between atoms: C_3  and  N_5 
REMARK    3  A    between atoms: C_12  and  C_3 
REMARK    4  A    between atoms: C_4  and  C_11 
REMARK       I    between atoms: N_6  and  C_4 
REMARK    5  A    between atoms: N_5  and  C_7 
REMARK    6  A    between atoms: C_10  and  N_6 
ROOT
ATOM      1  C   UNL d   1      13.538  13.234  -3.085  0.00  0.00     0.121 A 
ATOM      2  C   UNL d   1      13.561  13.206  -2.262  0.00  0.00     0.105 A 
ATOM      3  N   UNL d   1      13.401  11.819  -3.186  0.00  0.00    -0.241 NA
ATOM      4  C   UNL d   1      13.500  12.446  -1.894  0.00  0.00     0.042 A 
ATOM      5  C   UNL d   1      13.460  12.563  -3.559  0.00  0.00     0.120 A 
ATOM      6  C   UNL d   1      13.423  11.780  -2.356  0.00  0.00     0.101 A 
ENDROOT
BRANCH   1   7
ATOM      7  N   UNL d   1      13.599  13.998  -3.452  0.00  0.00    -0.205 NA
ATOM      8  C   UNL d   1      13.695  14.053  -4.292  0.00  0.00     0.279 C 
ATOM      9  O   UNL d   1      13.728  13.338  -4.746  0.00  0.00    -0.265 OA
BRANCH   8  10
ATOM     10  C   UNL d   1      13.756  14.794  -4.657  0.00  0.00     0.059 A 
ATOM     11  C   UNL d   1      14.370  15.306  -4.449  0.00  0.00     0.028 A 
ATOM     12  C   UNL d   1      14.423  16.028  -4.809  0.00  0.00     0.127 A 
ATOM     13  C   UNL d   1      13.885  16.255  -5.369  0.00  0.00     0.024 A 
ATOM     14  C   UNL d   1      13.267  15.758  -5.588  0.00  0.00     0.002 A 
ATOM     15  C   UNL d   1      13.201  15.012  -5.225  0.00  0.00     0.005 A 
BRANCH  12  16
ATOM     16  N   UNL d   1      15.016  16.544  -4.620  0.00  0.00    -0.114 N 
ATOM     17  O   UNL d   1      15.088  16.958  -3.905  0.00  0.00    -0.532 OA
ATOM     18  O   UNL d   1      15.633  16.729  -5.122  0.00  0.00    -0.532 OA
ENDBRANCH  12  16
ENDBRANCH   8  10
ENDBRANCH   1   7
BRANCH   2  19
ATOM     19  N   UNL d   1      13.640  13.882  -1.791  0.00  0.00    -0.206 NA
ATOM     20  C   UNL d   1      14.097  13.871  -1.103  0.00  0.00     0.279 C 
ATOM     21  O   UNL d   1      14.175  14.532  -0.643  0.00  0.00    -0.265 OA
BRANCH  20  22
ATOM     22  C   UNL d   1      14.492  13.152  -0.879  0.00  0.00     0.059 A 
ATOM     23  C   UNL d   1      15.223  12.970  -1.213  0.00  0.00     0.028 A 
ATOM     24  C   UNL d   1      15.604  12.278  -0.997  0.00  0.00     0.127 A 
ATOM     25  C   UNL d   1      15.270  11.785  -0.470  0.00  0.00     0.024 A 
ATOM     26  C   UNL d   1      14.526  11.954  -0.120  0.00  0.00     0.002 A 
ATOM     27  C   UNL d   1      14.135  12.657  -0.336  0.00  0.00     0.005 A 
BRANCH  24  28
ATOM     28  N   UNL d   1      16.326  12.079  -1.314  0.00  0.00    -0.114 N 
ATOM     29  O   UNL d   1      17.058  12.150  -0.916  0.00  0.00    -0.532 OA
ATOM     30  O   UNL d   1      16.430  11.782  -2.065  0.00  0.00    -0.532 OA
ENDBRANCH  24  28
ENDBRANCH  20  22
ENDBRANCH   2  19
TORSDOF 6
ENDMDL
