MODEL 1
REMARK VINA RESULT:      28.1      0.000      0.000
REMARK  3 active torsions:
REMARK  status: ('A' for Active; 'I' for Inactive)
REMARK    1  A    between atoms: C_7  and  C_3 
REMARK    2  A    between atoms: C_10  and  C_5 
REMARK    3  A    between atoms: C_9  and  C_7 
ROOT
ATOM      1  C   UNL d   1     -55.427-100.040 -44.095  0.00  0.00     0.101 A 
ATOM      2  O   UNL d   1     -56.133 -99.924 -44.511  0.00  0.00    -0.307 OA
ATOM      3  C   UNL d   1     -56.350 -99.127 -44.455  0.00  0.00     0.101 A 
ATOM      4  C   UNL d   1     -55.216 -99.304 -43.783  0.00  0.00     0.027 A 
ATOM      5  C   UNL d   1     -55.776 -98.756 -44.003  0.00  0.00     0.027 A 
ENDROOT
BRANCH   3   6
ATOM      6  C   UNL d   1     -57.021 -98.756 -44.787  0.00  0.00     0.036 C 
BRANCH   6   7
ATOM      7  C   UNL d   1     -57.732 -98.757 -44.368  0.00  0.00     0.091 A 
ATOM      8  C   UNL d   1     -58.465 -98.759 -44.774  0.00  0.00     0.286 A 
ATOM      9  N   UNL d   1     -59.072 -98.759 -44.220  0.00  0.00    -0.190 NA
ATOM     10  O   UNL d   1     -58.559 -98.761 -45.605  0.00  0.00    -0.265 OA
ATOM     11  C   UNL d   1     -58.747 -98.757 -43.497  0.00  0.00     0.169 A 
ATOM     12  S   UNL d   1     -57.920 -98.755 -43.560  0.00  0.00    -0.052 SA
ATOM     13  S   UNL d   1     -59.187 -98.756 -42.808  0.00  0.00    -0.050 SA
ENDBRANCH   6   7
ENDBRANCH   3   6
BRANCH   1  14
ATOM     14  C   UNL d   1     -55.203-100.815 -44.142  0.00  0.00     0.033 A 
ATOM     15  C   UNL d   1     -54.943-101.209 -43.452  0.00  0.00     0.060 A 
ATOM     16 CL   UNL d   1     -54.914-100.817 -42.732  0.00  0.00    -0.082 Cl
ATOM     17  C   UNL d   1     -54.712-101.998 -43.483  0.00  0.00     0.011 A 
ATOM     18  C   UNL d   1     -54.740-102.398 -44.207  0.00  0.00     0.001 A 
ATOM     19  C   UNL d   1     -54.999-102.004 -44.897  0.00  0.00     0.000 A 
ATOM     20  C   UNL d   1     -55.225-101.221 -44.845  0.00  0.00     0.003 A 
ENDBRANCH   1  14
TORSDOF 3
ENDMDL
MODEL 2
REMARK VINA RESULT:      28.3      2.232      4.096
REMARK  3 active torsions:
REMARK  status: ('A' for Active; 'I' for Inactive)
REMARK    1  A    between atoms: C_7  and  C_3 
REMARK    2  A    between atoms: C_10  and  C_5 
REMARK    3  A    between atoms: C_9  and  C_7 
ROOT
ATOM      1  C   UNL d   1     -57.807 -98.799 -44.548  0.00  0.00     0.101 A 
ATOM      2  O   UNL d   1     -57.054 -98.887 -44.216  0.00  0.00    -0.307 OA
ATOM      3  C   UNL d   1     -56.493 -98.896 -44.824  0.00  0.00     0.101 A 
ATOM      4  C   UNL d   1     -57.699 -98.755 -45.366  0.00  0.00     0.027 A 
ATOM      5  C   UNL d   1     -56.904 -98.814 -45.529  0.00  0.00     0.027 A 
ENDROOT
BRANCH   3   6
ATOM      6  C   UNL d   1     -55.664 -98.974 -44.752  0.00  0.00     0.036 C 
BRANCH   6   7
ATOM      7  C   UNL d   1     -55.349 -99.665 -44.429  0.00  0.00     0.091 A 
ATOM      8  C   UNL d   1     -54.966 -99.650 -43.684  0.00  0.00     0.286 A 
ATOM      9  N   UNL d   1     -54.711-100.410 -43.504  0.00  0.00    -0.190 NA
ATOM     10  O   UNL d   1     -54.863 -98.972 -43.205  0.00  0.00    -0.265 OA
ATOM     11  C   UNL d   1     -54.919-100.889 -44.101  0.00  0.00     0.169 A 
ATOM     12  S   UNL d   1     -55.314-100.453 -44.686  0.00  0.00    -0.052 SA
ATOM     13  S   UNL d   1     -54.754-101.689 -44.112  0.00  0.00    -0.050 SA
ENDBRANCH   6   7
ENDBRANCH   3   6
BRANCH   1  14
ATOM     14  C   UNL d   1     -58.366 -98.789 -43.964  0.00  0.00     0.033 A 
ATOM     15  C   UNL d   1     -59.176 -98.800 -44.172  0.00  0.00     0.060 A 
ATOM     16 CL   UNL d   1     -59.405 -98.821 -44.958  0.00  0.00    -0.082 Cl
ATOM     17  C   UNL d   1     -59.757 -98.789 -43.589  0.00  0.00     0.011 A 
ATOM     18  C   UNL d   1     -59.530 -98.767 -42.794  0.00  0.00     0.001 A 
ATOM     19  C   UNL d   1     -58.720 -98.756 -42.586  0.00  0.00     0.000 A 
ATOM     20  C   UNL d   1     -58.159 -98.767 -43.179  0.00  0.00     0.003 A 
ENDBRANCH   1  14
TORSDOF 3
ENDMDL
