MODEL 1
REMARK VINA RESULT:      -0.7      0.000      0.000
REMARK  3 active torsions:
REMARK  status: ('A' for Active; 'I' for Inactive)
REMARK    1  A    between atoms: C_8  and  N_2 
REMARK    2  A    between atoms: C_14  and  C_8 
REMARK    3  A    between atoms: N_13  and  C_14 
ROOT
ATOM      1  C   UNL d   1      58.210  -9.808  30.377  0.00  0.00     0.166 A 
ATOM      2  N   UNL d   1      58.893  -9.809  30.883  0.00  0.00    -0.288 N 
ATOM      3  C   UNL d   1      58.429  -9.797  29.555  0.00  0.00     0.117 A 
ATOM      4  C   UNL d   1      59.254  -9.792  29.562  0.00  0.00     0.037 A 
ATOM      5  C   UNL d   1      59.533  -9.800  30.390  0.00  0.00     0.067 A 
ATOM      6  N   UNL d   1      57.429  -9.815  30.557  0.00  0.00    -0.225 NA
ATOM      7  N   UNL d   1      57.867  -9.794  28.924  0.00  0.00    -0.241 NA
ATOM      8  C   UNL d   1      56.862  -9.811  29.912  0.00  0.00     0.101 A 
ATOM      9  C   UNL d   1      57.079  -9.801  29.096  0.00  0.00     0.099 A 
ATOM     10  C   UNL d   1      60.348  -9.797  30.561  0.00  0.00     0.018 A 
ATOM     11  C   UNL d   1      59.776  -9.782  28.924  0.00  0.00     0.003 A 
ATOM     12  C   UNL d   1      60.585  -9.779  29.106  0.00  0.00     0.000 A 
ATOM     13  C   UNL d   1      60.871  -9.786  29.923  0.00  0.00     0.002 A 
ATOM     14  C   UNL d   1      56.069  -9.818  30.086  0.00  0.00     0.021 A 
ATOM     15  C   UNL d   1      56.512  -9.797  28.467  0.00  0.00     0.021 A 
ATOM     16  C   UNL d   1      61.129  -9.769  28.487  0.00  0.00     0.000 C 
ATOM     17  C   UNL d   1      55.507  -9.814  29.454  0.00  0.00     0.002 A 
ATOM     18  C   UNL d   1      55.732  -9.804  28.636  0.00  0.00     0.002 A 
ENDROOT
BRANCH   2  19
ATOM     19  C   UNL d   1      58.947  -9.818  31.688  0.00  0.00     0.101 C 
BRANCH  19  20
ATOM     20  C   UNL d   1      58.883  -9.125  32.098  0.00  0.00     0.100 C 
BRANCH  20  21
ATOM     21  N   UNL d   1      59.006  -9.327  32.859  0.00  0.00    -0.298 N 
ATOM     22  C   UNL d   1      58.397  -9.542  33.317  0.00  0.00     0.107 A 
ATOM     23  C   UNL d   1      58.516  -9.746  34.079  0.00  0.00     0.142 A 
ATOM     24  O   UNL d   1      59.265  -9.731  34.382  0.00  0.00    -0.300 OA
ATOM     25  C   UNL d   1      59.878  -9.514  33.922  0.00  0.00     0.142 A 
ATOM     26  C   UNL d   1      59.751  -9.313  33.163  0.00  0.00     0.107 A 
ENDBRANCH  20  21
ENDBRANCH  19  20
ENDBRANCH   2  19
TORSDOF 3
ENDMDL
MODEL 2
REMARK VINA RESULT:       0.6      8.427      8.758
REMARK  3 active torsions:
REMARK  status: ('A' for Active; 'I' for Inactive)
REMARK    1  A    between atoms: C_8  and  N_2 
REMARK    2  A    between atoms: C_14  and  C_8 
REMARK    3  A    between atoms: N_13  and  C_14 
ROOT
ATOM      1  C   UNL d   1      58.724  -1.761  29.628  0.00  0.00     0.166 A 
ATOM      2  N   UNL d   1      58.505  -1.010  29.961  0.00  0.00    -0.288 N 
ATOM      3  C   UNL d   1      59.467  -1.716  29.215  0.00  0.00     0.117 A 
ATOM      4  C   UNL d   1      59.701  -0.929  29.299  0.00  0.00     0.037 A 
ATOM      5  C   UNL d   1      59.098  -0.499  29.763  0.00  0.00     0.067 A 
ATOM      6  N   UNL d   1      58.349  -2.468  29.647  0.00  0.00    -0.225 NA
ATOM      7  N   UNL d   1      59.824  -2.376  28.828  0.00  0.00    -0.241 NA
ATOM      8  C   UNL d   1      58.716  -3.137  29.252  0.00  0.00     0.101 A 
ATOM      9  C   UNL d   1      59.453  -3.092  28.842  0.00  0.00     0.099 A 
ATOM     10  C   UNL d   1      59.194   0.311  29.932  0.00  0.00     0.018 A 
ATOM     11  C   UNL d   1      60.379  -0.558  29.013  0.00  0.00     0.003 A 
ATOM     12  C   UNL d   1      60.464   0.248  29.187  0.00  0.00     0.000 A 
ATOM     13  C   UNL d   1      59.873   0.682  29.646  0.00  0.00     0.002 A 
ATOM     14  C   UNL d   1      58.343  -3.857  29.267  0.00  0.00     0.021 A 
ATOM     15  C   UNL d   1      59.809  -3.756  28.455  0.00  0.00     0.021 A 
ATOM     16  C   UNL d   1      61.133   0.643  28.913  0.00  0.00     0.000 C 
ATOM     17  C   UNL d   1      58.701  -4.518  28.879  0.00  0.00     0.002 A 
ATOM     18  C   UNL d   1      59.443  -4.465  28.469  0.00  0.00     0.002 A 
ENDROOT
BRANCH   2  19
ATOM     19  C   UNL d   1      57.856  -0.800  30.391  0.00  0.00     0.101 C 
BRANCH  19  20
ATOM     20  C   UNL d   1      57.674  -1.209  31.064  0.00  0.00     0.100 C 
BRANCH  20  21
ATOM     21  N   UNL d   1      57.183  -0.729  31.467  0.00  0.00    -0.298 N 
ATOM     22  C   UNL d   1      56.616  -1.035  31.927  0.00  0.00     0.107 A 
ATOM     23  C   UNL d   1      56.122  -0.557  32.333  0.00  0.00     0.142 A 
ATOM     24  O   UNL d   1      56.205   0.244  32.271  0.00  0.00    -0.300 OA
ATOM     25  C   UNL d   1      56.774   0.552  31.808  0.00  0.00     0.142 A 
ATOM     26  C   UNL d   1      57.262   0.070  31.407  0.00  0.00     0.107 A 
ENDBRANCH  20  21
ENDBRANCH  19  20
ENDBRANCH   2  19
TORSDOF 3
ENDMDL
