MODEL 1
REMARK VINA RESULT:      -8.3      0.000      0.000
REMARK  8 active torsions:
REMARK  status: ('A' for Active; 'I' for Inactive)
REMARK    1  A    between atoms: C_2  and  S_1 
REMARK    2  A    between atoms: N_11  and  S_1 
REMARK    3  A    between atoms: C_10  and  C_3 
REMARK    4  A    between atoms: N_6  and  C_18 
REMARK    5  A    between atoms: C_20  and  N_11 
REMARK    6  A    between atoms: O_17  and  C_12 
REMARK    7  A    between atoms: C_18  and  C_19 
REMARK    8  A    between atoms: C_19  and  C_20 
ROOT
ATOM      1  C   UNL d   1      52.226  33.227  53.191  0.00  0.00     0.105 A 
ATOM      2  C   UNL d   1      53.455  32.772  53.758  0.00  0.00     0.000 A 
ATOM      3  C   UNL d   1      52.921  33.381  53.610  0.00  0.00     0.011 A 
ATOM      4  C   UNL d   1      53.295  32.008  53.487  0.00  0.00     0.090 A 
ATOM      5  C   UNL d   1      52.063  32.461  52.918  0.00  0.00     0.015 A 
ATOM      6  C   UNL d   1      52.597  31.851  53.067  0.00  0.00     0.025 A 
ENDROOT
BRANCH   1   7
ATOM      7  S   UNL d   1      51.691  33.836  53.043  0.00  0.00     0.285 S 
ATOM      8  O   UNL d   1      51.355  33.722  53.786  0.00  0.00    -0.198 OA
ATOM      9  O   UNL d   1      52.027  33.950  52.299  0.00  0.00    -0.198 OA
BRANCH   7  10
ATOM     10  N   UNL d   1      51.154  34.449  52.894  0.00  0.00    -0.157 NA
BRANCH  10  11
ATOM     11  C   UNL d   1      50.349  34.275  52.794  0.00  0.00     0.114 C 
BRANCH  11  12
ATOM     12  C   UNL d   1      49.798  34.888  52.769  0.00  0.00     0.041 C 
BRANCH  12  13
ATOM     13  C   UNL d   1      49.057  34.772  52.425  0.00  0.00     0.083 C 
BRANCH  13  14
ATOM     14  N   UNL d   1      48.474  35.353  52.479  0.00  0.00    -0.285 N 
ATOM     15  C   UNL d   1      48.319  35.814  53.144  0.00  0.00     0.183 A 
ATOM     16  N   UNL d   1      47.692  36.320  52.952  0.00  0.00    -0.222 NA
ATOM     17  C   UNL d   1      47.467  36.168  52.174  0.00  0.00     0.120 A 
ATOM     18  C   UNL d   1      47.954  35.567  51.882  0.00  0.00     0.102 A 
ENDBRANCH  13  14
ENDBRANCH  12  13
ENDBRANCH  11  12
ENDBRANCH  10  11
ENDBRANCH   7  10
ENDBRANCH   1   7
BRANCH   2  19
ATOM     19  C   UNL d   1      54.148  32.924  54.174  0.00  0.00     0.021 C 
ATOM     20  C   UNL d   1      54.837  33.075  54.592  0.00  0.00     0.004 C 
ATOM     21  C   UNL d   1      54.547  33.048  53.466  0.00  0.00     0.004 C 
ATOM     22  C   UNL d   1      53.754  32.801  54.889  0.00  0.00     0.004 C 
ENDBRANCH   2  19
BRANCH   4  23
ATOM     23  O   UNL d   1      53.830  31.398  53.636  0.00  0.00    -0.328 OA
ATOM     24  C   UNL d   1      53.638  30.622  53.428  0.00  0.00     0.181 C 
ENDBRANCH   4  23
TORSDOF 8
ENDMDL
MODEL 2
REMARK VINA RESULT:      -7.2      0.896      1.167
REMARK  8 active torsions:
REMARK  status: ('A' for Active; 'I' for Inactive)
REMARK    1  A    between atoms: C_2  and  S_1 
REMARK    2  A    between atoms: N_11  and  S_1 
REMARK    3  A    between atoms: C_10  and  C_3 
REMARK    4  A    between atoms: N_6  and  C_18 
REMARK    5  A    between atoms: C_20  and  N_11 
REMARK    6  A    between atoms: O_17  and  C_12 
REMARK    7  A    between atoms: C_18  and  C_19 
REMARK    8  A    between atoms: C_19  and  C_20 
ROOT
ATOM      1  C   UNL d   1      51.706  33.601  53.037  0.00  0.00     0.105 A 
ATOM      2  C   UNL d   1      52.908  33.770  53.790  0.00  0.00     0.000 A 
ATOM      3  C   UNL d   1      52.174  34.054  53.545  0.00  0.00     0.011 A 
ATOM      4  C   UNL d   1      53.173  33.034  53.526  0.00  0.00     0.090 A 
ATOM      5  C   UNL d   1      51.970  32.862  52.771  0.00  0.00     0.015 A 
ATOM      6  C   UNL d   1      52.704  32.578  53.016  0.00  0.00     0.025 A 
ENDROOT
BRANCH   1   7
ATOM      7  S   UNL d   1      50.972  33.885  52.792  0.00  0.00     0.285 S 
ATOM      8  O   UNL d   1      50.605  33.454  53.391  0.00  0.00    -0.198 OA
ATOM      9  O   UNL d   1      51.338  34.316  52.193  0.00  0.00    -0.198 OA
BRANCH   7  10
ATOM     10  N   UNL d   1      50.234  34.171  52.546  0.00  0.00    -0.157 NA
BRANCH  10  11
ATOM     11  C   UNL d   1      49.851  34.758  52.989  0.00  0.00     0.114 C 
BRANCH  11  12
ATOM     12  C   UNL d   1      49.136  35.069  52.724  0.00  0.00     0.041 C 
BRANCH  12  13
ATOM     13  C   UNL d   1      48.724  35.622  53.179  0.00  0.00     0.083 C 
BRANCH  13  14
ATOM     14  N   UNL d   1      48.028  35.961  52.897  0.00  0.00    -0.285 N 
ATOM     15  C   UNL d   1      47.541  36.476  53.318  0.00  0.00     0.183 A 
ATOM     16  N   UNL d   1      46.908  36.677  52.824  0.00  0.00    -0.222 NA
ATOM     17  C   UNL d   1      47.008  36.287  52.106  0.00  0.00     0.120 A 
ATOM     18  C   UNL d   1      47.704  35.843  52.153  0.00  0.00     0.102 A 
ENDBRANCH  13  14
ENDBRANCH  12  13
ENDBRANCH  11  12
ENDBRANCH  10  11
ENDBRANCH   7  10
ENDBRANCH   1   7
BRANCH   2  19
ATOM     19  C   UNL d   1      53.375  34.219  54.296  0.00  0.00     0.021 C 
ATOM     20  C   UNL d   1      53.842  34.669  54.798  0.00  0.00     0.004 C 
ATOM     21  C   UNL d   1      53.092  33.791  54.938  0.00  0.00     0.004 C 
ATOM     22  C   UNL d   1      53.664  34.654  53.656  0.00  0.00     0.004 C 
ENDBRANCH   2  19
BRANCH   4  23
ATOM     23  O   UNL d   1      53.908  32.749  53.771  0.00  0.00    -0.328 OA
ATOM     24  C   UNL d   1      54.153  31.993  53.546  0.00  0.00     0.181 C 
ENDBRANCH   4  23
TORSDOF 8
ENDMDL
MODEL 3
REMARK VINA RESULT:      -6.0      2.891      4.865
REMARK  8 active torsions:
REMARK  status: ('A' for Active; 'I' for Inactive)
REMARK    1  A    between atoms: C_2  and  S_1 
REMARK    2  A    between atoms: N_11  and  S_1 
REMARK    3  A    between atoms: C_10  and  C_3 
REMARK    4  A    between atoms: N_6  and  C_18 
REMARK    5  A    between atoms: C_20  and  N_11 
REMARK    6  A    between atoms: O_17  and  C_12 
REMARK    7  A    between atoms: C_18  and  C_19 
REMARK    8  A    between atoms: C_19  and  C_20 
ROOT
ATOM      1  C   UNL d   1      52.881  33.269  53.495  0.00  0.00     0.105 A 
ATOM      2  C   UNL d   1      53.775  33.904  54.409  0.00  0.00     0.000 A 
ATOM      3  C   UNL d   1      53.521  33.227  54.016  0.00  0.00     0.011 A 
ATOM      4  C   UNL d   1      53.391  34.624  54.282  0.00  0.00     0.090 A 
ATOM      5  C   UNL d   1      52.493  33.991  53.366  0.00  0.00     0.015 A 
ATOM      6  C   UNL d   1      52.748  34.668  53.759  0.00  0.00     0.025 A 
ENDROOT
BRANCH   1   7
ATOM      7  S   UNL d   1      52.626  32.591  53.102  0.00  0.00     0.285 S 
ATOM      8  O   UNL d   1      51.962  32.558  53.589  0.00  0.00    -0.198 OA
ATOM      9  O   UNL d   1      53.290  32.624  52.615  0.00  0.00    -0.198 OA
BRANCH   7  10
ATOM     10  N   UNL d   1      52.370  31.910  52.706  0.00  0.00    -0.157 NA
BRANCH  10  11
ATOM     11  C   UNL d   1      52.843  31.229  52.710  0.00  0.00     0.114 C 
BRANCH  11  12
ATOM     12  C   UNL d   1      52.554  30.531  53.039  0.00  0.00     0.041 C 
BRANCH  12  13
ATOM     13  C   UNL d   1      53.013  29.845  53.039  0.00  0.00     0.083 C 
BRANCH  13  14
ATOM     14  N   UNL d   1      53.122  29.413  53.733  0.00  0.00    -0.285 N 
ATOM     15  C   UNL d   1      52.523  29.080  54.189  0.00  0.00     0.183 A 
ATOM     16  N   UNL d   1      52.882  28.700  54.831  0.00  0.00    -0.222 NA
ATOM     17  C   UNL d   1      53.697  28.802  54.766  0.00  0.00     0.120 A 
ATOM     18  C   UNL d   1      53.844  29.245  54.083  0.00  0.00     0.102 A 
ENDBRANCH  13  14
ENDBRANCH  12  13
ENDBRANCH  11  12
ENDBRANCH  10  11
ENDBRANCH   7  10
ENDBRANCH   1   7
BRANCH   2  19
ATOM     19  C   UNL d   1      54.412  33.864  54.929  0.00  0.00     0.021 C 
ATOM     20  C   UNL d   1      55.049  33.825  55.444  0.00  0.00     0.004 C 
ATOM     21  C   UNL d   1      53.895  33.723  55.552  0.00  0.00     0.004 C 
ATOM     22  C   UNL d   1      54.937  34.006  54.307  0.00  0.00     0.004 C 
ENDBRANCH   2  19
BRANCH   4  23
ATOM     23  O   UNL d   1      53.646  35.303  54.676  0.00  0.00    -0.328 OA
ATOM     24  C   UNL d   1      53.215  36.004  54.608  0.00  0.00     0.181 C 
ENDBRANCH   4  23
TORSDOF 8
ENDMDL
MODEL 4
REMARK VINA RESULT:      -5.9      2.723      5.422
REMARK  8 active torsions:
REMARK  status: ('A' for Active; 'I' for Inactive)
REMARK    1  A    between atoms: C_2  and  S_1 
REMARK    2  A    between atoms: N_11  and  S_1 
REMARK    3  A    between atoms: C_10  and  C_3 
REMARK    4  A    between atoms: N_6  and  C_18 
REMARK    5  A    between atoms: C_20  and  N_11 
REMARK    6  A    between atoms: O_17  and  C_12 
REMARK    7  A    between atoms: C_18  and  C_19 
REMARK    8  A    between atoms: C_19  and  C_20 
ROOT
ATOM      1  C   UNL d   1      53.204  33.111  53.516  0.00  0.00     0.105 A 
ATOM      2  C   UNL d   1      52.161  34.068  53.329  0.00  0.00     0.000 A 
ATOM      3  C   UNL d   1      52.467  33.313  53.204  0.00  0.00     0.011 A 
ATOM      4  C   UNL d   1      52.593  34.621  53.765  0.00  0.00     0.090 A 
ATOM      5  C   UNL d   1      53.640  33.665  53.955  0.00  0.00     0.015 A 
ATOM      6  C   UNL d   1      53.334  34.419  54.079  0.00  0.00     0.025 A 
ENDROOT
BRANCH   1   7
ATOM      7  S   UNL d   1      53.510  32.356  53.391  0.00  0.00     0.285 S 
ATOM      8  O   UNL d   1      53.202  32.357  52.627  0.00  0.00    -0.198 OA
ATOM      9  O   UNL d   1      53.818  32.355  54.156  0.00  0.00    -0.198 OA
BRANCH   7  10
ATOM     10  N   UNL d   1      53.818  31.597  53.266  0.00  0.00    -0.157 NA
BRANCH  10  11
ATOM     11  C   UNL d   1      53.314  30.939  53.294  0.00  0.00     0.114 C 
BRANCH  11  12
ATOM     12  C   UNL d   1      53.599  30.216  53.568  0.00  0.00     0.041 C 
BRANCH  12  13
ATOM     13  C   UNL d   1      53.080  29.597  53.739  0.00  0.00     0.083 C 
BRANCH  13  14
ATOM     14  N   UNL d   1      53.231  29.085  54.367  0.00  0.00    -0.285 N 
ATOM     15  C   UNL d   1      53.669  28.389  54.323  0.00  0.00     0.183 A 
ATOM     16  N   UNL d   1      53.678  28.054  55.080  0.00  0.00    -0.222 NA
ATOM     17  C   UNL d   1      53.247  28.544  55.583  0.00  0.00     0.120 A 
ATOM     18  C   UNL d   1      52.970  29.184  55.139  0.00  0.00     0.102 A 
ENDBRANCH  13  14
ENDBRANCH  12  13
ENDBRANCH  11  12
ENDBRANCH  10  11
ENDBRANCH   7  10
ENDBRANCH   1   7
BRANCH   2  19
ATOM     19  C   UNL d   1      51.427  34.272  53.019  0.00  0.00     0.021 C 
ATOM     20  C   UNL d   1      50.694  34.473  52.712  0.00  0.00     0.004 C 
ATOM     21  C   UNL d   1      51.791  34.540  52.332  0.00  0.00     0.004 C 
ATOM     22  C   UNL d   1      51.054  34.004  53.705  0.00  0.00     0.004 C 
ENDBRANCH   2  19
BRANCH   4  23
ATOM     23  O   UNL d   1      52.287  35.377  53.890  0.00  0.00    -0.328 OA
ATOM     24  C   UNL d   1      52.666  35.894  54.410  0.00  0.00     0.181 C 
ENDBRANCH   4  23
TORSDOF 8
ENDMDL
