MODEL 1
REMARK VINA RESULT:      -7.5      0.000      0.000
REMARK  6 active torsions:
REMARK  status: ('A' for Active; 'I' for Inactive)
REMARK    1  A    between atoms: N_3  and  C_1 
REMARK       I    between atoms: C_7  and  N_3 
REMARK    2  A    between atoms: S_14  and  C_4 
REMARK    3  A    between atoms: C_8  and  C_7 
REMARK    4  A    between atoms: C_11  and  N_13 
REMARK    5  A    between atoms: C_12  and  C_21 
REMARK       I    between atoms: N_13  and  C_12 
REMARK    6  A    between atoms: C_21  and  S_14 
ROOT
ATOM      1  S   UNL d   1     -47.556  14.384  22.900  0.00  0.00    -0.054 SA
ENDROOT
BRANCH   1   2
ATOM      2  C   UNL d   1     -46.935  13.864  23.012  0.00  0.00     0.165 A 
ATOM      3  S   UNL d   1     -46.339  13.851  22.490  0.00  0.00    -0.019 SA
ATOM      4  C   UNL d   1     -45.756  13.300  22.677  0.00  0.00     0.219 A 
ATOM      5  N   UNL d   1     -46.064  12.983  23.367  0.00  0.00    -0.120 NA
ATOM      6  N   UNL d   1     -46.770  13.331  23.555  0.00  0.00    -0.133 NA
BRANCH   4   7
ATOM      7  N   UNL d   1     -45.165  13.110  22.388  0.00  0.00    -0.181 NA
ATOM      8  C   UNL d   1     -44.535  12.541  22.287  0.00  0.00     0.281 C 
ATOM      9  O   UNL d   1     -44.608  11.843  22.727  0.00  0.00    -0.265 OA
BRANCH   8  10
ATOM     10  C   UNL d   1     -43.904  12.662  21.797  0.00  0.00     0.058 A 
ATOM     11  C   UNL d   1     -43.629  12.952  21.068  0.00  0.00     0.005 A 
ATOM     12  C   UNL d   1     -43.143  12.579  21.702  0.00  0.00     0.005 A 
ENDBRANCH   8  10
ENDBRANCH   4   7
ENDBRANCH   1   2
BRANCH   1  13
ATOM     13  C   UNL d   1     -48.357  14.167  22.948  0.00  0.00     0.100 C 
BRANCH  13  14
ATOM     14  C   UNL d   1     -48.976  14.717  23.027  0.00  0.00     0.286 C 
ATOM     15  N   UNL d   1     -49.754  14.490  22.937  0.00  0.00    -0.208 NA
ATOM     16  O   UNL d   1     -48.842  15.522  23.200  0.00  0.00    -0.265 OA
BRANCH  15  17
ATOM     17  C   UNL d   1     -49.908  13.673  22.760  0.00  0.00     0.085 A 
ATOM     18  C   UNL d   1     -49.963  13.508  21.974  0.00  0.00     0.019 A 
ATOM     19  C   UNL d   1     -50.104  12.766  21.770  0.00  0.00     0.002 A 
ATOM     20  C   UNL d   1     -50.176  12.495  21.034  0.00  0.00     0.000 C 
ATOM     21  C   UNL d   1     -50.198  12.151  22.341  0.00  0.00     0.000 A 
ATOM     22  C   UNL d   1     -50.134  12.357  23.175  0.00  0.00     0.002 A 
ATOM     23  C   UNL d   1     -49.985  13.140  23.386  0.00  0.00     0.019 A 
ATOM     24  C   UNL d   1     -50.225  11.767  23.698  0.00  0.00     0.000 C 
ENDBRANCH  15  17
ENDBRANCH  13  14
ENDBRANCH   1  13
TORSDOF 6
ENDMDL
MODEL 2
REMARK VINA RESULT:      -7.3      1.385      1.603
REMARK  6 active torsions:
REMARK  status: ('A' for Active; 'I' for Inactive)
REMARK    1  A    between atoms: N_3  and  C_1 
REMARK       I    between atoms: C_7  and  N_3 
REMARK    2  A    between atoms: S_14  and  C_4 
REMARK    3  A    between atoms: C_8  and  C_7 
REMARK    4  A    between atoms: C_11  and  N_13 
REMARK    5  A    between atoms: C_12  and  C_21 
REMARK       I    between atoms: N_13  and  C_12 
REMARK    6  A    between atoms: C_21  and  S_14 
ROOT
ATOM      1  S   UNL d   1     -47.124  13.553  22.908  0.00  0.00    -0.054 SA
ENDROOT
BRANCH   1   2
ATOM      2  C   UNL d   1     -46.898  12.818  23.186  0.00  0.00     0.165 A 
ATOM      3  S   UNL d   1     -46.158  12.566  23.060  0.00  0.00    -0.019 SA
ATOM      4  C   UNL d   1     -46.013  11.816  23.371  0.00  0.00     0.219 A 
ATOM      5  N   UNL d   1     -46.745  11.646  23.698  0.00  0.00    -0.120 NA
ATOM      6  N   UNL d   1     -47.264  12.255  23.579  0.00  0.00    -0.133 NA
BRANCH   4   7
ATOM      7  N   UNL d   1     -45.470  11.401  23.389  0.00  0.00    -0.181 NA
ATOM      8  C   UNL d   1     -44.657  11.230  23.189  0.00  0.00     0.281 C 
ATOM      9  O   UNL d   1     -44.263  11.817  22.755  0.00  0.00    -0.265 OA
BRANCH   8  10
ATOM     10  C   UNL d   1     -44.282  10.546  23.402  0.00  0.00     0.058 A 
ATOM     11  C   UNL d   1     -43.560  10.150  23.514  0.00  0.00     0.005 A 
ATOM     12  C   UNL d   1     -44.367   9.818  23.640  0.00  0.00     0.005 A 
ENDBRANCH   8  10
ENDBRANCH   4   7
ENDBRANCH   1   2
BRANCH   1  13
ATOM     13  C   UNL d   1     -47.895  13.739  22.659  0.00  0.00     0.100 C 
BRANCH  13  14
ATOM     14  C   UNL d   1     -48.129  14.500  22.421  0.00  0.00     0.286 C 
ATOM     15  N   UNL d   1     -48.905  14.662  22.233  0.00  0.00    -0.208 NA
ATOM     16  O   UNL d   1     -47.592  15.136  22.359  0.00  0.00    -0.265 OA
BRANCH  15  17
ATOM     17  C   UNL d   1     -49.466  14.026  22.291  0.00  0.00     0.085 A 
ATOM     18  C   UNL d   1     -49.543  13.589  21.618  0.00  0.00     0.019 A 
ATOM     19  C   UNL d   1     -50.049  12.994  21.630  0.00  0.00     0.002 A 
ATOM     20  C   UNL d   1     -50.202  12.505  21.032  0.00  0.00     0.000 C 
ATOM     21  C   UNL d   1     -50.505  12.803  22.316  0.00  0.00     0.000 A 
ATOM     22  C   UNL d   1     -50.402  13.287  23.021  0.00  0.00     0.002 A 
ATOM     23  C   UNL d   1     -49.867  13.915  23.004  0.00  0.00     0.019 A 
ATOM     24  C   UNL d   1     -50.838  13.094  23.655  0.00  0.00     0.000 C 
ENDBRANCH  15  17
ENDBRANCH  13  14
ENDBRANCH   1  13
TORSDOF 6
ENDMDL
MODEL 3
REMARK VINA RESULT:      -7.1      1.396      1.688
REMARK  6 active torsions:
REMARK  status: ('A' for Active; 'I' for Inactive)
REMARK    1  A    between atoms: N_3  and  C_1 
REMARK       I    between atoms: C_7  and  N_3 
REMARK    2  A    between atoms: S_14  and  C_4 
REMARK    3  A    between atoms: C_8  and  C_7 
REMARK    4  A    between atoms: C_11  and  N_13 
REMARK    5  A    between atoms: C_12  and  C_21 
REMARK       I    between atoms: N_13  and  C_12 
REMARK    6  A    between atoms: C_21  and  S_14 
ROOT
ATOM      1  S   UNL d   1     -47.505  12.263  23.555  0.00  0.00    -0.054 SA
ENDROOT
BRANCH   1   2
ATOM      2  C   UNL d   1     -46.885  12.725  23.291  0.00  0.00     0.165 A 
ATOM      3  S   UNL d   1     -46.269  12.381  22.930  0.00  0.00    -0.019 SA
ATOM      4  C   UNL d   1     -45.689  12.918  22.695  0.00  0.00     0.219 A 
ATOM      5  N   UNL d   1     -46.022  13.621  22.954  0.00  0.00    -0.120 NA
ATOM      6  N   UNL d   1     -46.737  13.490  23.308  0.00  0.00    -0.133 NA
BRANCH   4   7
ATOM      7  N   UNL d   1     -45.086  12.864  22.376  0.00  0.00    -0.181 NA
ATOM      8  C   UNL d   1     -44.360  12.440  22.224  0.00  0.00     0.281 C 
ATOM      9  O   UNL d   1     -44.270  11.724  22.634  0.00  0.00    -0.265 OA
BRANCH   8  10
ATOM     10  C   UNL d   1     -43.789  12.705  21.718  0.00  0.00     0.058 A 
ATOM     11  C   UNL d   1     -43.588  13.222  21.098  0.00  0.00     0.005 A 
ATOM     12  C   UNL d   1     -43.054  12.640  21.491  0.00  0.00     0.005 A 
ENDBRANCH   8  10
ENDBRANCH   4   7
ENDBRANCH   1   2
BRANCH   1  13
ATOM     13  C   UNL d   1     -48.293  12.356  23.308  0.00  0.00     0.100 C 
BRANCH  13  14
ATOM     14  C   UNL d   1     -48.880  11.779  23.422  0.00  0.00     0.286 C 
ATOM     15  N   UNL d   1     -49.664  11.941  23.266  0.00  0.00    -0.208 NA
ATOM     16  O   UNL d   1     -48.707  11.010  23.697  0.00  0.00    -0.265 OA
BRANCH  15  17
ATOM     17  C   UNL d   1     -49.857  12.719  22.985  0.00  0.00     0.085 A 
ATOM     18  C   UNL d   1     -49.897  12.782  22.182  0.00  0.00     0.019 A 
ATOM     19  C   UNL d   1     -50.072  13.483  21.884  0.00  0.00     0.002 A 
ATOM     20  C   UNL d   1     -50.137  13.657  21.118  0.00  0.00     0.000 C 
ATOM     21  C   UNL d   1     -50.217  14.158  22.371  0.00  0.00     0.000 A 
ATOM     22  C   UNL d   1     -50.168  14.061  23.226  0.00  0.00     0.002 A 
ATOM     23  C   UNL d   1     -49.983  13.320  23.537  0.00  0.00     0.019 A 
ATOM     24  C   UNL d   1     -50.308  14.705  23.668  0.00  0.00     0.000 C 
ENDBRANCH  15  17
ENDBRANCH  13  14
ENDBRANCH   1  13
TORSDOF 6
ENDMDL
MODEL 4
REMARK VINA RESULT:      -5.5      8.743      9.809
REMARK  6 active torsions:
REMARK  status: ('A' for Active; 'I' for Inactive)
REMARK    1  A    between atoms: N_3  and  C_1 
REMARK       I    between atoms: C_7  and  N_3 
REMARK    2  A    between atoms: S_14  and  C_4 
REMARK    3  A    between atoms: C_8  and  C_7 
REMARK    4  A    between atoms: C_11  and  N_13 
REMARK    5  A    between atoms: C_12  and  C_21 
REMARK       I    between atoms: N_13  and  C_12 
REMARK    6  A    between atoms: C_21  and  S_14 
ROOT
ATOM      1  S   UNL d   1     -40.414  15.314  19.107  0.00  0.00    -0.054 SA
ENDROOT
BRANCH   1   2
ATOM      2  C   UNL d   1     -39.879  15.367  19.723  0.00  0.00     0.165 A 
ATOM      3  S   UNL d   1     -39.855  14.790  20.267  0.00  0.00    -0.019 SA
ATOM      4  C   UNL d   1     -39.289  14.920  20.852  0.00  0.00     0.219 A 
ATOM      5  N   UNL d   1     -38.977  15.636  20.602  0.00  0.00    -0.120 NA
ATOM      6  N   UNL d   1     -39.340  15.890  19.926  0.00  0.00    -0.133 NA
BRANCH   4   7
ATOM      7  N   UNL d   1     -39.087  14.577  21.408  0.00  0.00    -0.181 NA
ATOM      8  C   UNL d   1     -38.606  13.975  21.778  0.00  0.00     0.281 C 
ATOM      9  O   UNL d   1     -38.108  13.552  21.267  0.00  0.00    -0.265 OA
BRANCH   8  10
ATOM     10  C   UNL d   1     -38.624  13.817  22.570  0.00  0.00     0.058 A 
ATOM     11  C   UNL d   1     -39.028  13.461  23.203  0.00  0.00     0.005 A 
ATOM     12  C   UNL d   1     -38.266  13.902  23.248  0.00  0.00     0.005 A 
ENDBRANCH   8  10
ENDBRANCH   4   7
ENDBRANCH   1   2
BRANCH   1  13
ATOM     13  C   UNL d   1     -40.199  15.171  18.317  0.00  0.00     0.100 C 
BRANCH  13  14
ATOM     14  C   UNL d   1     -40.741  15.179  17.686  0.00  0.00     0.286 C 
ATOM     15  N   UNL d   1     -40.506  14.998  16.927  0.00  0.00    -0.208 NA
ATOM     16  O   UNL d   1     -41.547  15.372  17.789  0.00  0.00    -0.265 OA
BRANCH  15  17
ATOM     17  C   UNL d   1     -39.688  14.799  16.805  0.00  0.00     0.085 A 
ATOM     18  C   UNL d   1     -39.232  15.413  16.551  0.00  0.00     0.019 A 
ATOM     19  C   UNL d   1     -38.473  15.271  16.427  0.00  0.00     0.002 A 
ATOM     20  C   UNL d   1     -37.940  15.795  16.180  0.00  0.00     0.000 C 
ATOM     21  C   UNL d   1     -38.130  14.509  16.550  0.00  0.00     0.000 A 
ATOM     22  C   UNL d   1     -38.643  13.871  16.822  0.00  0.00     0.002 A 
ATOM     23  C   UNL d   1     -39.443  14.025  16.952  0.00  0.00     0.019 A 
ATOM     24  C   UNL d   1     -38.305  13.162  16.932  0.00  0.00     0.000 C 
ENDBRANCH  15  17
ENDBRANCH  13  14
ENDBRANCH   1  13
TORSDOF 6
ENDMDL
MODEL 5
REMARK VINA RESULT:      -4.9      0.813      1.403
REMARK  6 active torsions:
REMARK  status: ('A' for Active; 'I' for Inactive)
REMARK    1  A    between atoms: N_3  and  C_1 
REMARK       I    between atoms: C_7  and  N_3 
REMARK    2  A    between atoms: S_14  and  C_4 
REMARK    3  A    between atoms: C_8  and  C_7 
REMARK    4  A    between atoms: C_11  and  N_13 
REMARK    5  A    between atoms: C_12  and  C_21 
REMARK       I    between atoms: N_13  and  C_12 
REMARK    6  A    between atoms: C_21  and  S_14 
ROOT
ATOM      1  S   UNL d   1     -46.766  13.850  23.010  0.00  0.00    -0.054 SA
ENDROOT
BRANCH   1   2
ATOM      2  C   UNL d   1     -46.237  13.353  22.634  0.00  0.00     0.165 A 
ATOM      3  S   UNL d   1     -45.504  13.611  22.479  0.00  0.00    -0.019 SA
ATOM      4  C   UNL d   1     -45.036  13.049  22.098  0.00  0.00     0.219 A 
ATOM      5  N   UNL d   1     -45.566  12.427  22.041  0.00  0.00    -0.120 NA
ATOM      6  N   UNL d   1     -46.280  12.623  22.366  0.00  0.00    -0.133 NA
BRANCH   4   7
ATOM      7  N   UNL d   1     -44.391  13.037  21.870  0.00  0.00    -0.181 NA
ATOM      8  C   UNL d   1     -43.632  12.650  21.802  0.00  0.00     0.281 C 
ATOM      9  O   UNL d   1     -43.571  11.914  22.178  0.00  0.00    -0.265 OA
BRANCH   8  10
ATOM     10  C   UNL d   1     -43.006  12.968  21.402  0.00  0.00     0.058 A 
ATOM     11  C   UNL d   1     -42.218  13.229  21.430  0.00  0.00     0.005 A 
ATOM     12  C   UNL d   1     -42.748  13.234  20.726  0.00  0.00     0.005 A 
ENDBRANCH   8  10
ENDBRANCH   4   7
ENDBRANCH   1   2
BRANCH   1  13
ATOM     13  C   UNL d   1     -47.523  14.030  22.717  0.00  0.00     0.100 C 
BRANCH  13  14
ATOM     14  C   UNL d   1     -47.943  14.717  22.926  0.00  0.00     0.286 C 
ATOM     15  N   UNL d   1     -48.758  14.725  22.932  0.00  0.00    -0.208 NA
ATOM     16  O   UNL d   1     -47.564  15.429  23.139  0.00  0.00    -0.265 OA
BRANCH  15  17
ATOM     17  C   UNL d   1     -49.161  14.008  22.717  0.00  0.00     0.085 A 
ATOM     18  C   UNL d   1     -49.539  13.643  23.328  0.00  0.00     0.019 A 
ATOM     19  C   UNL d   1     -49.921  12.979  23.171  0.00  0.00     0.002 A 
ATOM     20  C   UNL d   1     -50.322  12.543  23.690  0.00  0.00     0.000 C 
ATOM     21  C   UNL d   1     -49.947  12.645  22.396  0.00  0.00     0.000 A 
ATOM     22  C   UNL d   1     -49.533  13.057  21.761  0.00  0.00     0.002 A 
ATOM     23  C   UNL d   1     -49.131  13.757  21.931  0.00  0.00     0.019 A 
ATOM     24  C   UNL d   1     -49.567  12.730  21.040  0.00  0.00     0.000 C 
ENDBRANCH  15  17
ENDBRANCH  13  14
ENDBRANCH   1  13
TORSDOF 6
ENDMDL
