MODEL 1
REMARK VINA RESULT:      34.6      0.000      0.000
REMARK  4 active torsions:
REMARK  status: ('A' for Active; 'I' for Inactive)
REMARK    1  A    between atoms: C_2  and  C_1 
REMARK    2  A    between atoms: C_11  and  N_5 
REMARK    3  A    between atoms: C_14  and  C_11 
REMARK    4  A    between atoms: C_17  and  C_14 
ROOT
ATOM      1  C   UNL d   1     -50.667  25.469  33.328  0.00  0.00     0.112 A 
ATOM      2  C   UNL d   1     -50.729  26.283  33.330  0.00  0.00     0.176 A 
ATOM      3  N   UNL d   1     -49.958  26.597  33.317  0.00  0.00    -0.285 N 
ATOM      4  C   UNL d   1     -49.869  25.270  33.313  0.00  0.00     0.219 A 
ATOM      5  C   UNL d   1     -49.440  25.972  33.306  0.00  0.00     0.124 A 
ATOM      6  O   UNL d   1     -49.549  24.513  33.306  0.00  0.00    -0.285 OA
ATOM      7  N   UNL d   1     -51.435  26.728  33.344  0.00  0.00    -0.128 N 
ENDROOT
BRANCH   1   8
ATOM      8  C   UNL d   1     -51.323  24.961  33.339  0.00  0.00     0.169 A 
ATOM      9  N   UNL d   1     -51.381  24.142  33.372  0.00  0.00    -0.225 NA
ATOM     10  C   UNL d   1     -52.182  23.946  33.368  0.00  0.00     0.101 A 
ATOM     11  C   UNL d   1     -52.571  23.221  33.392  0.00  0.00     0.021 A 
ATOM     12  C   UNL d   1     -52.615  24.648  33.332  0.00  0.00     0.101 A 
ATOM     13  C   UNL d   1     -53.397  23.195  33.381  0.00  0.00     0.002 A 
ATOM     14  C   UNL d   1     -53.831  23.897  33.345  0.00  0.00     0.002 A 
ATOM     15  C   UNL d   1     -53.438  24.625  33.320  0.00  0.00     0.021 A 
ATOM     16  N   UNL d   1     -52.080  25.272  33.314  0.00  0.00    -0.225 NA
ENDBRANCH   1   8
BRANCH   3  17
ATOM     17  C   UNL d   1     -49.757  27.398  33.314  0.00  0.00     0.082 C 
BRANCH  17  18
ATOM     18  C   UNL d   1     -50.233  27.946  33.705  0.00  0.00     0.019 C 
BRANCH  18  19
ATOM     19  C   UNL d   1     -50.158  28.749  33.545  0.00  0.00     0.002 C 
ATOM     20  C   UNL d   1     -50.821  29.196  33.339  0.00  0.00     0.000 C 
ATOM     21  C   UNL d   1     -49.416  29.111  33.592  0.00  0.00     0.000 C 
ENDBRANCH  18  19
ENDBRANCH  17  18
ENDBRANCH   3  17
TORSDOF 4
ENDMDL
