MODEL 1
REMARK VINA RESULT:      41.7      0.000      0.000
REMARK  4 active torsions:
REMARK  status: ('A' for Active; 'I' for Inactive)
REMARK    1  A    between atoms: C_2  and  C_1 
REMARK    2  A    between atoms: C_3  and  C_1 
REMARK       I    between atoms: N_7  and  C_2 
REMARK    3  A    between atoms: C_4  and  C_3 
REMARK    4  A    between atoms: C_13  and  N_7 
ROOT
ATOM      1  C   UNL d   1     -55.874 -99.380 -43.979  0.00  0.00     0.128 C 
ATOM      2  C   UNL d   1     -55.820 -99.265 -44.787  0.00  0.00     0.106 C 
ATOM      3  N   UNL d   1     -55.760 -99.148 -45.611  0.00  0.00    -0.191 NA
ENDROOT
BRANCH   1   4
ATOM      4  C   UNL d   1     -55.189 -99.406 -43.504  0.00  0.00     0.289 C 
ATOM      5  N   UNL d   1     -54.714-100.077 -43.513  0.00  0.00    -0.207 NA
ATOM      6  O   UNL d   1     -55.000 -98.756 -43.031  0.00  0.00    -0.264 OA
BRANCH   5   7
ATOM      7  C   UNL d   1     -54.903-100.726 -43.985  0.00  0.00     0.085 A 
ATOM      8  C   UNL d   1     -55.156-101.430 -43.636  0.00  0.00     0.019 A 
ATOM      9  C   UNL d   1     -55.345-102.079 -44.108  0.00  0.00     0.002 A 
ATOM     10  C   UNL d   1     -55.281-102.026 -44.929  0.00  0.00     0.000 A 
ATOM     11  C   UNL d   1     -55.029-101.322 -45.278  0.00  0.00     0.002 A 
ATOM     12  C   UNL d   1     -55.473-102.683 -45.397  0.00  0.00     0.000 C 
ATOM     13  C   UNL d   1     -54.840-100.673 -44.806  0.00  0.00     0.019 A 
ENDBRANCH   5   7
ENDBRANCH   1   4
BRANCH   1  14
ATOM     14  C   UNL d   1     -56.614 -99.472 -43.627  0.00  0.00     0.040 C 
BRANCH  14  15
ATOM     15  C   UNL d   1     -57.303 -99.240 -44.026  0.00  0.00     0.101 A 
ATOM     16  O   UNL d   1     -58.095 -99.230 -43.811  0.00  0.00    -0.307 OA
ATOM     17  C   UNL d   1     -58.523 -98.936 -44.453  0.00  0.00     0.100 A 
ATOM     18  C   UNL d   1     -59.353 -98.829 -44.482  0.00  0.00     0.027 C 
ATOM     19  C   UNL d   1     -58.005 -98.767 -45.058  0.00  0.00     0.027 A 
ATOM     20  C   UNL d   1     -57.242 -98.955 -44.796  0.00  0.00     0.027 A 
ENDBRANCH  14  15
ENDBRANCH   1  14
TORSDOF 4
ENDMDL
