MODEL 1
REMARK VINA RESULT:      -2.4      0.000      0.000
REMARK  4 active torsions:
REMARK  status: ('A' for Active; 'I' for Inactive)
REMARK    1  A    between atoms: O_2  and  P_1 
REMARK    2  A    between atoms: C_6  and  P_1 
REMARK    3  A    between atoms: C_3  and  O_2 
REMARK    4  A    between atoms: C_10  and  C_4 
ROOT
ATOM      1  C   UNL d   1      31.694  16.575 -24.091  0.00  0.00     0.103 A 
ATOM      2  C   UNL d   1      32.512  16.673 -24.013  0.00  0.00     0.023 A 
ATOM      3  C   UNL d   1      32.883  17.338 -24.275  0.00  0.00     0.002 A 
ATOM      4  C   UNL d   1      31.259  17.180 -24.447  0.00  0.00     0.025 A 
ATOM      5  C   UNL d   1      32.444  17.943 -24.631  0.00  0.00     0.000 A 
ATOM      6  C   UNL d   1      31.630  17.846 -24.709  0.00  0.00     0.002 A 
ATOM      7  C   UNL d   1      31.170  18.441 -25.063  0.00  0.00     0.000 C 
ENDROOT
BRANCH   1   8
ATOM      8  O   UNL d   1      31.318  15.889 -23.821  0.00  0.00    -0.269 OA
BRANCH   8   9
ATOM      9  P   UNL d   1      30.501  15.851 -23.817  0.00  0.00     0.370 P 
ATOM     10  O   UNL d   1      30.490  16.103 -23.039  0.00  0.00    -0.257 OA
ATOM     11  N   UNL d   1      30.526  15.591 -24.622  0.00  0.00    -0.091 N 
BRANCH   9  12
ATOM     12  C   UNL d   1      29.675  15.806 -23.833  0.00  0.00     0.077 A 
ATOM     13  C   UNL d   1      29.312  15.498 -24.507  0.00  0.00     0.007 A 
ATOM     14  C   UNL d   1      28.482  15.453 -24.524  0.00  0.00     0.000 A 
ATOM     15  C   UNL d   1      28.028  15.709 -23.880  0.00  0.00     0.000 A 
ATOM     16  C   UNL d   1      28.406  16.009 -23.224  0.00  0.00     0.000 A 
ATOM     17  C   UNL d   1      29.222  16.062 -23.190  0.00  0.00     0.007 A 
ENDBRANCH   9  12
ENDBRANCH   8   9
ENDBRANCH   1   8
BRANCH   2  18
ATOM     18  C   UNL d   1      32.959  16.083 -23.663  0.00  0.00     0.002 C 
ATOM     19  C   UNL d   1      33.240  15.456 -24.108  0.00  0.00     0.000 C 
ATOM     20  C   UNL d   1      33.125  16.123 -22.858  0.00  0.00     0.000 C 
ENDBRANCH   2  18
TORSDOF 4
ENDMDL
MODEL 2
REMARK VINA RESULT:      -2.2      1.069      3.331
REMARK  4 active torsions:
REMARK  status: ('A' for Active; 'I' for Inactive)
REMARK    1  A    between atoms: O_2  and  P_1 
REMARK    2  A    between atoms: C_6  and  P_1 
REMARK    3  A    between atoms: C_3  and  O_2 
REMARK    4  A    between atoms: C_10  and  C_4 
ROOT
ATOM      1  C   UNL d   1      29.560  16.535 -24.164  0.00  0.00     0.103 A 
ATOM      2  C   UNL d   1      28.772  16.656 -23.942  0.00  0.00     0.023 A 
ATOM      3  C   UNL d   1      28.392  17.349 -24.096  0.00  0.00     0.002 A 
ATOM      4  C   UNL d   1      29.956  17.147 -24.551  0.00  0.00     0.025 A 
ATOM      5  C   UNL d   1      28.793  17.962 -24.485  0.00  0.00     0.000 A 
ATOM      6  C   UNL d   1      29.577  17.842 -24.706  0.00  0.00     0.002 A 
ATOM      7  C   UNL d   1      29.997  18.443 -25.097  0.00  0.00     0.000 C 
ENDROOT
BRANCH   1   8
ATOM      8  O   UNL d   1      29.945  15.821 -24.004  0.00  0.00    -0.269 OA
BRANCH   8   9
ATOM      9  P   UNL d   1      30.757  15.772 -24.083  0.00  0.00     0.370 P 
ATOM     10  O   UNL d   1      30.852  16.081 -23.332  0.00  0.00    -0.257 OA
ATOM     11  N   UNL d   1      30.645  15.453 -24.859  0.00  0.00    -0.091 N 
BRANCH   9  12
ATOM     12  C   UNL d   1      31.576  15.715 -24.183  0.00  0.00     0.077 A 
ATOM     13  C   UNL d   1      31.869  15.549 -24.936  0.00  0.00     0.007 A 
ATOM     14  C   UNL d   1      32.693  15.492 -25.037  0.00  0.00     0.000 A 
ATOM     15  C   UNL d   1      33.209  15.598 -24.398  0.00  0.00     0.000 A 
ATOM     16  C   UNL d   1      32.899  15.760 -23.662  0.00  0.00     0.000 A 
ATOM     17  C   UNL d   1      32.092  15.821 -23.545  0.00  0.00     0.007 A 
ENDBRANCH   9  12
ENDBRANCH   8   9
ENDBRANCH   1   8
BRANCH   2  18
ATOM     18  C   UNL d   1      28.364  16.060 -23.557  0.00  0.00     0.002 C 
ATOM     19  C   UNL d   1      28.295  16.064 -22.741  0.00  0.00     0.000 C 
ATOM     20  C   UNL d   1      28.022  15.453 -23.996  0.00  0.00     0.000 C 
ENDBRANCH   2  18
TORSDOF 4
ENDMDL
MODEL 3
REMARK VINA RESULT:      -1.5      1.700      3.662
REMARK  4 active torsions:
REMARK  status: ('A' for Active; 'I' for Inactive)
REMARK    1  A    between atoms: O_2  and  P_1 
REMARK    2  A    between atoms: C_6  and  P_1 
REMARK    3  A    between atoms: C_3  and  O_2 
REMARK    4  A    between atoms: C_10  and  C_4 
ROOT
ATOM      1  C   UNL d   1      30.438  17.252 -24.299  0.00  0.00     0.103 A 
ATOM      2  C   UNL d   1      29.907  16.671 -24.043  0.00  0.00     0.023 A 
ATOM      3  C   UNL d   1      29.112  16.759 -24.130  0.00  0.00     0.002 A 
ATOM      4  C   UNL d   1      30.133  17.933 -24.651  0.00  0.00     0.025 A 
ATOM      5  C   UNL d   1      28.809  17.445 -24.484  0.00  0.00     0.000 A 
ATOM      6  C   UNL d   1      29.337  18.022 -24.739  0.00  0.00     0.002 A 
ATOM      7  C   UNL d   1      29.055  18.718 -25.096  0.00  0.00     0.000 C 
ENDROOT
BRANCH   1   8
ATOM      8  O   UNL d   1      31.255  17.155 -24.206  0.00  0.00    -0.269 OA
BRANCH   8   9
ATOM      9  P   UNL d   1      31.739  17.813 -24.177  0.00  0.00     0.370 P 
ATOM     10  O   UNL d   1      31.636  17.857 -23.366  0.00  0.00    -0.257 OA
ATOM     11  N   UNL d   1      31.837  17.757 -25.015  0.00  0.00    -0.091 N 
BRANCH   9  12
ATOM     12  C   UNL d   1      32.231  18.478 -24.168  0.00  0.00     0.077 A 
ATOM     13  C   UNL d   1      32.430  18.809 -23.439  0.00  0.00     0.007 A 
ATOM     14  C   UNL d   1      32.925  19.478 -23.428  0.00  0.00     0.000 A 
ATOM     15  C   UNL d   1      33.213  19.805 -24.132  0.00  0.00     0.000 A 
ATOM     16  C   UNL d   1      33.005  19.462 -24.842  0.00  0.00     0.000 A 
ATOM     17  C   UNL d   1      32.520  18.805 -24.871  0.00  0.00     0.007 A 
ENDBRANCH   9  12
ENDBRANCH   8   9
ENDBRANCH   1   8
BRANCH   2  18
ATOM     18  C   UNL d   1      30.192  15.988 -23.691  0.00  0.00     0.002 C 
ATOM     19  C   UNL d   1      30.024  15.824 -22.907  0.00  0.00     0.000 C 
ATOM     20  C   UNL d   1      30.651  15.465 -24.132  0.00  0.00     0.000 C 
ENDBRANCH   2  18
TORSDOF 4
ENDMDL
MODEL 4
REMARK VINA RESULT:       0.4      6.574      7.720
REMARK  4 active torsions:
REMARK  status: ('A' for Active; 'I' for Inactive)
REMARK    1  A    between atoms: O_2  and  P_1 
REMARK    2  A    between atoms: C_6  and  P_1 
REMARK    3  A    between atoms: C_3  and  O_2 
REMARK    4  A    between atoms: C_10  and  C_4 
ROOT
ATOM      1  C   UNL d   1      32.749  22.364 -21.756  0.00  0.00     0.103 A 
ATOM      2  C   UNL d   1      32.871  22.308 -22.573  0.00  0.00     0.023 A 
ATOM      3  C   UNL d   1      33.063  21.609 -22.923  0.00  0.00     0.002 A 
ATOM      4  C   UNL d   1      32.829  21.680 -21.301  0.00  0.00     0.025 A 
ATOM      5  C   UNL d   1      33.142  20.924 -22.463  0.00  0.00     0.000 A 
ATOM      6  C   UNL d   1      33.021  20.980 -21.651  0.00  0.00     0.002 A 
ATOM      7  C   UNL d   1      33.096  20.305 -21.170  0.00  0.00     0.000 C 
ENDROOT
BRANCH   1   8
ATOM      8  O   UNL d   1      32.552  23.085 -21.402  0.00  0.00    -0.269 OA
BRANCH   8   9
ATOM      9  P   UNL d   1      32.554  23.149 -20.586  0.00  0.00     0.370 P 
ATOM     10  O   UNL d   1      31.899  22.660 -20.544  0.00  0.00    -0.257 OA
ATOM     11  N   UNL d   1      33.231  23.652 -20.644  0.00  0.00    -0.091 N 
BRANCH   9  12
ATOM     12  C   UNL d   1      32.573  23.225 -19.763  0.00  0.00     0.077 A 
ATOM     13  C   UNL d   1      31.906  23.529 -19.383  0.00  0.00     0.007 A 
ATOM     14  C   UNL d   1      31.924  23.607 -18.554  0.00  0.00     0.000 A 
ATOM     15  C   UNL d   1      32.593  23.385 -18.120  0.00  0.00     0.000 A 
ATOM     16  C   UNL d   1      33.240  23.087 -18.515  0.00  0.00     0.000 A 
ATOM     17  C   UNL d   1      33.241  23.003 -19.329  0.00  0.00     0.007 A 
ENDBRANCH   9  12
ENDBRANCH   8   9
ENDBRANCH   1   8
BRANCH   2  18
ATOM     18  C   UNL d   1      32.795  22.976 -23.040  0.00  0.00     0.002 C 
ATOM     19  C   UNL d   1      33.241  23.057 -23.722  0.00  0.00     0.000 C 
ATOM     20  C   UNL d   1      32.267  23.568 -22.820  0.00  0.00     0.000 C 
ENDBRANCH   2  18
TORSDOF 4
ENDMDL
MODEL 5
REMARK VINA RESULT:       0.5      2.292      3.574
REMARK  4 active torsions:
REMARK  status: ('A' for Active; 'I' for Inactive)
REMARK    1  A    between atoms: O_2  and  P_1 
REMARK    2  A    between atoms: C_6  and  P_1 
REMARK    3  A    between atoms: C_3  and  O_2 
REMARK    4  A    between atoms: C_10  and  C_4 
ROOT
ATOM      1  C   UNL d   1      32.752  19.247 -23.782  0.00  0.00     0.103 A 
ATOM      2  C   UNL d   1      32.789  20.064 -23.909  0.00  0.00     0.023 A 
ATOM      3  C   UNL d   1      32.970  20.575 -23.314  0.00  0.00     0.002 A 
ATOM      4  C   UNL d   1      32.907  18.962 -23.022  0.00  0.00     0.025 A 
ATOM      5  C   UNL d   1      33.124  20.286 -22.553  0.00  0.00     0.000 A 
ATOM      6  C   UNL d   1      33.088  19.474 -22.426  0.00  0.00     0.002 A 
ATOM      7  C   UNL d   1      33.239  19.162 -21.670  0.00  0.00     0.000 C 
ENDROOT
BRANCH   1   8
ATOM      8  O   UNL d   1      32.566  18.726 -24.397  0.00  0.00    -0.269 OA
BRANCH   8   9
ATOM      9  P   UNL d   1      32.397  17.944 -24.227  0.00  0.00     0.370 P 
ATOM     10  O   UNL d   1      31.602  18.128 -24.157  0.00  0.00    -0.257 OA
ATOM     11  N   UNL d   1      33.220  17.767 -24.302  0.00  0.00    -0.091 N 
BRANCH   9  12
ATOM     12  C   UNL d   1      32.245  17.149 -24.057  0.00  0.00     0.077 A 
ATOM     13  C   UNL d   1      32.857  16.604 -24.155  0.00  0.00     0.007 A 
ATOM     14  C   UNL d   1      32.706  15.804 -23.984  0.00  0.00     0.000 A 
ATOM     15  C   UNL d   1      31.959  15.557 -23.723  0.00  0.00     0.000 A 
ATOM     16  C   UNL d   1      31.369  16.112 -23.634  0.00  0.00     0.000 A 
ATOM     17  C   UNL d   1      31.500  16.903 -23.796  0.00  0.00     0.007 A 
ENDBRANCH   9  12
ENDBRANCH   8   9
ENDBRANCH   1   8
BRANCH   2  18
ATOM     18  C   UNL d   1      32.639  20.364 -24.656  0.00  0.00     0.002 C 
ATOM     19  C   UNL d   1      33.241  20.700 -25.097  0.00  0.00     0.000 C 
ATOM     20  C   UNL d   1      31.876  20.326 -24.963  0.00  0.00     0.000 C 
ENDBRANCH   2  18
TORSDOF 4
ENDMDL
