MODEL 1
REMARK VINA RESULT:      -4.9      0.000      0.000
REMARK  2 active torsions:
REMARK  status: ('A' for Active; 'I' for Inactive)
REMARK    1  A    between atoms: CA_2  and  C_1 
REMARK    2  A    between atoms: C_3  and  CA_2 
ROOT
ATOM      1  C   UNL d   1      56.890   0.067  32.015  0.00  0.00     0.025 A 
ATOM      2  C   UNL d   1      56.713  -0.724  32.197  0.00  0.00     0.003 A 
ATOM      3  C   UNL d   1      56.427   0.679  32.339  0.00  0.00     0.003 A 
ATOM      4  C   UNL d   1      55.621  -0.290  33.020  0.00  0.00     0.058 A 
ATOM      5  C   UNL d   1      56.079  -0.897  32.699  0.00  0.00     0.011 A 
ATOM      6  C   UNL d   1      55.793   0.494  32.842  0.00  0.00     0.011 A 
ATOM      7 CL   UNL d   1      54.991  -0.470  33.518  0.00  0.00    -0.082 Cl
ENDROOT
BRANCH   1   8
ATOM      8  CA  UNL d   1      57.520   0.246  31.515  0.00  0.00     0.167 C 
ATOM      9  N   UNL d   1      58.212   0.574  31.821  0.00  0.00    -0.142 N 
BRANCH   8  10
ATOM     10  C   UNL d   1      57.454   0.093  30.707  0.00  0.00     0.231 C 
ATOM     11  O   UNL d   1      57.674  -0.637  30.399  0.00  0.00    -0.643 OA
ATOM     12  OXT UNL d   1      57.164   0.679  30.203  0.00  0.00    -0.643 OA
ENDBRANCH   8  10
ENDBRANCH   1   8
TORSDOF 2
ENDMDL
MODEL 2
REMARK VINA RESULT:      -4.4      1.239      1.450
REMARK  2 active torsions:
REMARK  status: ('A' for Active; 'I' for Inactive)
REMARK    1  A    between atoms: CA_2  and  C_1 
REMARK    2  A    between atoms: C_3  and  CA_2 
ROOT
ATOM      1  C   UNL d   1      56.279  -0.104  32.801  0.00  0.00     0.025 A 
ATOM      2  C   UNL d   1      55.493  -0.327  32.950  0.00  0.00     0.003 A 
ATOM      3  C   UNL d   1      56.681   0.384  33.343  0.00  0.00     0.003 A 
ATOM      4  C   UNL d   1      55.513   0.422  34.174  0.00  0.00     0.058 A 
ATOM      5  C   UNL d   1      55.116  -0.062  33.637  0.00  0.00     0.011 A 
ATOM      6  C   UNL d   1      56.292   0.645  34.030  0.00  0.00     0.011 A 
ATOM      7 CL   UNL d   1      55.131   0.682  34.856  0.00  0.00    -0.082 Cl
ENDROOT
BRANCH   1   8
ATOM      8  CA  UNL d   1      56.660  -0.365  32.119  0.00  0.00     0.167 C 
ATOM      9  N   UNL d   1      56.646  -1.163  31.915  0.00  0.00    -0.142 N 
BRANCH   8  10
ATOM     10  C   UNL d   1      57.057   0.180  31.642  0.00  0.00     0.231 C 
ATOM     11  O   UNL d   1      57.870   0.282  31.709  0.00  0.00    -0.643 OA
ATOM     12  OXT UNL d   1      56.633   0.627  31.093  0.00  0.00    -0.643 OA
ENDBRANCH   8  10
ENDBRANCH   1   8
TORSDOF 2
ENDMDL
MODEL 3
REMARK VINA RESULT:      -3.6      8.910      9.553
REMARK  2 active torsions:
REMARK  status: ('A' for Active; 'I' for Inactive)
REMARK    1  A    between atoms: CA_2  and  C_1 
REMARK    2  A    between atoms: C_3  and  CA_2 
ROOT
ATOM      1  C   UNL d   1      59.815  -7.990  35.838  0.00  0.00     0.025 A 
ATOM      2  C   UNL d   1      59.326  -7.318  35.814  0.00  0.00     0.003 A 
ATOM      3  C   UNL d   1      60.622  -7.907  36.026  0.00  0.00     0.003 A 
ATOM      4  C   UNL d   1      60.446  -6.492  36.163  0.00  0.00     0.058 A 
ATOM      5  C   UNL d   1      59.646  -6.573  35.977  0.00  0.00     0.011 A 
ATOM      6  C   UNL d   1      60.933  -7.154  36.187  0.00  0.00     0.011 A 
ATOM      7 CL   UNL d   1      60.757  -5.746  36.324  0.00  0.00    -0.082 Cl
ENDROOT
BRANCH   1   8
ATOM      8  CA  UNL d   1      59.503  -8.735  35.677  0.00  0.00     0.167 C 
ATOM      9  N   UNL d   1      59.052  -9.128  36.244  0.00  0.00    -0.142 N 
BRANCH   8  10
ATOM     10  C   UNL d   1      59.644  -9.084  34.943  0.00  0.00     0.231 C 
ATOM     11  O   UNL d   1      59.186  -8.887  34.289  0.00  0.00    -0.643 OA
ATOM     12  OXT UNL d   1      60.253  -9.637  34.864  0.00  0.00    -0.643 OA
ENDBRANCH   8  10
ENDBRANCH   1   8
TORSDOF 2
ENDMDL
MODEL 4
REMARK VINA RESULT:      -3.1      9.368      9.970
REMARK  2 active torsions:
REMARK  status: ('A' for Active; 'I' for Inactive)
REMARK    1  A    between atoms: CA_2  and  C_1 
REMARK    2  A    between atoms: C_3  and  CA_2 
ROOT
ATOM      1  C   UNL d   1      60.172  -8.708  34.941  0.00  0.00     0.025 A 
ATOM      2  C   UNL d   1      59.478  -9.080  34.678  0.00  0.00     0.003 A 
ATOM      3  C   UNL d   1      60.849  -8.704  34.456  0.00  0.00     0.003 A 
ATOM      4  C   UNL d   1      60.136  -9.442  33.456  0.00  0.00     0.058 A 
ATOM      5  C   UNL d   1      59.465  -9.445  33.936  0.00  0.00     0.011 A 
ATOM      6  C   UNL d   1      60.825  -9.074  33.713  0.00  0.00     0.011 A 
ATOM      7 CL   UNL d   1      60.116  -9.808  32.718  0.00  0.00    -0.082 Cl
ENDROOT
BRANCH   1   8
ATOM      8  CA  UNL d   1      60.191  -8.342  35.679  0.00  0.00     0.167 C 
ATOM      9  N   UNL d   1      60.508  -8.737  36.330  0.00  0.00    -0.142 N 
BRANCH   8  10
ATOM     10  C   UNL d   1      59.892  -7.578  35.762  0.00  0.00     0.231 C 
ATOM     11  O   UNL d   1      60.355  -6.923  35.580  0.00  0.00    -0.643 OA
ATOM     12  OXT UNL d   1      59.118  -7.469  36.029  0.00  0.00    -0.643 OA
ENDBRANCH   8  10
ENDBRANCH   1   8
TORSDOF 2
ENDMDL
MODEL 5
REMARK VINA RESULT:      -2.5      3.558      4.515
REMARK  2 active torsions:
REMARK  status: ('A' for Active; 'I' for Inactive)
REMARK    1  A    between atoms: CA_2  and  C_1 
REMARK    2  A    between atoms: C_3  and  CA_2 
ROOT
ATOM      1  C   UNL d   1      59.059  -1.347  29.127  0.00  0.00     0.025 A 
ATOM      2  C   UNL d   1      58.623  -2.054  29.159  0.00  0.00     0.003 A 
ATOM      3  C   UNL d   1      59.889  -1.374  29.067  0.00  0.00     0.003 A 
ATOM      4  C   UNL d   1      59.842  -2.807  29.073  0.00  0.00     0.058 A 
ATOM      5  C   UNL d   1      59.020  -2.779  29.132  0.00  0.00     0.011 A 
ATOM      6  C   UNL d   1      60.276  -2.109  29.040  0.00  0.00     0.011 A 
ATOM      7 CL   UNL d   1      60.229  -3.533  29.046  0.00  0.00    -0.082 Cl
ENDROOT
BRANCH   1   8
ATOM      8  CA  UNL d   1      58.671  -0.621  29.153  0.00  0.00     0.167 C 
ATOM      9  N   UNL d   1      58.478  -0.227  28.455  0.00  0.00    -0.142 N 
BRANCH   8  10
ATOM     10  C   UNL d   1      58.476  -0.291  29.884  0.00  0.00     0.231 C 
ATOM     11  O   UNL d   1      57.756  -0.460  30.243  0.00  0.00    -0.643 OA
ATOM     12  OXT UNL d   1      59.011   0.215  30.260  0.00  0.00    -0.643 OA
ENDBRANCH   8  10
ENDBRANCH   1   8
TORSDOF 2
ENDMDL
