MODEL 1
REMARK VINA RESULT:      42.0      0.000      0.000
REMARK  6 active torsions:
REMARK  status: ('A' for Active; 'I' for Inactive)
REMARK    1  A    between atoms: C_8  and  C_3 
REMARK    2  A    between atoms: C_6  and  O_10 
REMARK    3  A    between atoms: S_9  and  C_8 
REMARK    4  A    between atoms: C_16  and  S_9 
REMARK    5  A    between atoms: O_10  and  C_17 
REMARK    6  A    between atoms: C_17  and  C_16 
ROOT
ATOM      1  S   UNL d   1      59.896  49.667  51.074  0.00  0.00    -0.081 SA
ENDROOT
BRANCH   1   2
ATOM      2  C   UNL d   1      60.709  49.579  50.982  0.00  0.00     0.074 C 
BRANCH   2   3
ATOM      3  C   UNL d   1      61.010  48.905  50.621  0.00  0.00     0.169 A 
ATOM      4  N   UNL d   1      61.433  48.478  50.038  0.00  0.00    -0.225 NA
ATOM      5  C   UNL d   1      61.387  47.663  50.230  0.00  0.00     0.101 A 
ATOM      6  C   UNL d   1      60.937  47.597  50.928  0.00  0.00     0.101 A 
ATOM      7  C   UNL d   1      61.686  46.975  49.874  0.00  0.00     0.021 A 
ATOM      8  N   UNL d   1      60.701  48.358  51.176  0.00  0.00    -0.225 NA
ATOM      9  C   UNL d   1      60.795  46.844  51.257  0.00  0.00     0.021 A 
ATOM     10  C   UNL d   1      61.095  46.177  50.896  0.00  0.00     0.002 A 
ATOM     11  C   UNL d   1      61.541  46.243  50.205  0.00  0.00     0.002 A 
ENDBRANCH   2   3
ENDBRANCH   1   2
BRANCH   1  12
ATOM     12  C   UNL d   1      59.391  49.498  50.446  0.00  0.00     0.062 C 
BRANCH  12  13
ATOM     13  C   UNL d   1      58.596  49.706  50.490  0.00  0.00     0.130 C 
BRANCH  13  14
ATOM     14  O   UNL d   1      58.137  49.420  51.113  0.00  0.00    -0.305 OA
BRANCH  14  15
ATOM     15  C   UNL d   1      57.475  49.446  50.620  0.00  0.00     0.100 A 
ATOM     16  C   UNL d   1      56.736  49.588  50.935  0.00  0.00     0.023 A 
ATOM     17  C   UNL d   1      56.650  49.707  51.753  0.00  0.00     0.002 C 
ATOM     18  C   UNL d   1      56.072  49.615  50.445  0.00  0.00     0.002 A 
ATOM     19  C   UNL d   1      56.156  49.497  49.637  0.00  0.00     0.000 A 
ATOM     20  C   UNL d   1      56.908  49.353  49.321  0.00  0.00     0.002 A 
ATOM     21  C   UNL d   1      57.566  49.328  49.817  0.00  0.00     0.025 A 
ENDBRANCH  14  15
ENDBRANCH  13  14
ENDBRANCH  12  13
ENDBRANCH   1  12
TORSDOF 6
ENDMDL
