MODEL 1
REMARK VINA RESULT:      -7.8      0.000      0.000
REMARK  4 active torsions:
REMARK  status: ('A' for Active; 'I' for Inactive)
REMARK    1  A    between atoms: C_8  and  C_1 
REMARK    2  A    between atoms: C_4  and  C_2 
REMARK    3  A    between atoms: O_16  and  C_8 
REMARK    4  A    between atoms: C_21  and  O_16 
ROOT
ATOM      1  C   UNL d   1      53.050  32.043  53.239  0.00  0.00     0.099 A 
ATOM      2  C   UNL d   1      53.749  31.864  53.639  0.00  0.00     0.096 A 
ATOM      3  C   UNL d   1      52.481  31.442  53.111  0.00  0.00     0.093 A 
ATOM      4  C   UNL d   1      53.319  30.503  53.784  0.00  0.00     0.369 A 
ATOM      5  N   UNL d   1      52.620  30.673  53.386  0.00  0.00    -0.191 NA
ATOM      6  N   UNL d   1      53.881  31.096  53.910  0.00  0.00    -0.191 NA
ATOM      7  O   UNL d   1      53.458  29.734  54.059  0.00  0.00    -0.242 OA
ATOM      8  C   UNL d   1      51.783  31.608  52.715  0.00  0.00     0.021 C 
ENDROOT
BRANCH   2   9
ATOM      9  C   UNL d   1      54.305  32.449  53.764  0.00  0.00     0.057 A 
ATOM     10  C   UNL d   1      54.396  32.789  54.510  0.00  0.00     0.005 A 
ATOM     11  C   UNL d   1      54.958  33.382  54.636  0.00  0.00     0.000 A 
ATOM     12  C   UNL d   1      53.915  32.528  55.134  0.00  0.00     0.000 A 
ATOM     13  C   UNL d   1      55.043  33.717  55.387  0.00  0.00     0.000 A 
ATOM     14  C   UNL d   1      55.433  33.638  54.017  0.00  0.00     0.003 A 
ATOM     15  C   UNL d   1      54.568  33.460  56.009  0.00  0.00     0.000 A 
ATOM     16  C   UNL d   1      54.005  32.867  55.883  0.00  0.00     0.000 A 
ATOM     17  C   UNL d   1      55.348  33.304  53.265  0.00  0.00     0.042 A 
ATOM     18  C   UNL d   1      54.763  32.687  53.134  0.00  0.00     0.197 A 
ATOM     19  O   UNL d   1      55.304  33.020  52.550  0.00  0.00    -0.286 OA
ENDBRANCH   2   9
BRANCH   1  20
ATOM     20  C   UNL d   1      52.923  32.810  52.971  0.00  0.00     0.303 C 
ATOM     21  O   UNL d   1      53.332  33.090  52.317  0.00  0.00    -0.259 OA
BRANCH  20  22
ATOM     22  O   UNL d   1      52.382  33.289  53.367  0.00  0.00    -0.271 OA
BRANCH  22  23
ATOM     23  C   UNL d   1      51.985  33.872  52.946  0.00  0.00     0.126 C 
ATOM     24  C   UNL d   1      51.596  34.475  53.341  0.00  0.00     0.029 C 
ENDBRANCH  22  23
ENDBRANCH  20  22
ENDBRANCH   1  20
TORSDOF 4
ENDMDL
MODEL 2
REMARK VINA RESULT:      -7.1      1.191      2.930
REMARK  4 active torsions:
REMARK  status: ('A' for Active; 'I' for Inactive)
REMARK    1  A    between atoms: C_8  and  C_1 
REMARK    2  A    between atoms: C_4  and  C_2 
REMARK    3  A    between atoms: O_16  and  C_8 
REMARK    4  A    between atoms: C_21  and  O_16 
ROOT
ATOM      1  C   UNL d   1      53.305  32.398  53.885  0.00  0.00     0.099 A 
ATOM      2  C   UNL d   1      52.894  32.578  53.192  0.00  0.00     0.096 A 
ATOM      3  C   UNL d   1      53.549  31.610  54.030  0.00  0.00     0.093 A 
ATOM      4  C   UNL d   1      52.969  31.203  52.791  0.00  0.00     0.369 A 
ATOM      5  N   UNL d   1      53.379  31.015  53.479  0.00  0.00    -0.191 NA
ATOM      6  N   UNL d   1      52.727  31.981  52.649  0.00  0.00    -0.191 NA
ATOM      7  O   UNL d   1      52.798  30.608  52.241  0.00  0.00    -0.242 OA
ATOM      8  C   UNL d   1      53.957  31.421  54.714  0.00  0.00     0.021 C 
ENDROOT
BRANCH   2   9
ATOM      9  C   UNL d   1      52.655  33.346  53.051  0.00  0.00     0.057 A 
ATOM     10  C   UNL d   1      51.858  33.551  53.087  0.00  0.00     0.005 A 
ATOM     11  C   UNL d   1      51.616  34.329  52.944  0.00  0.00     0.000 A 
ATOM     12  C   UNL d   1      51.298  32.965  53.269  0.00  0.00     0.000 A 
ATOM     13  C   UNL d   1      50.814  34.525  52.982  0.00  0.00     0.000 A 
ATOM     14  C   UNL d   1      52.172  34.906  52.765  0.00  0.00     0.003 A 
ATOM     15  C   UNL d   1      50.256  33.946  53.162  0.00  0.00     0.000 A 
ATOM     16  C   UNL d   1      50.497  33.168  53.305  0.00  0.00     0.000 A 
ATOM     17  C   UNL d   1      52.974  34.710  52.727  0.00  0.00     0.042 A 
ATOM     18  C   UNL d   1      53.225  33.901  52.876  0.00  0.00     0.197 A 
ATOM     19  O   UNL d   1      53.731  34.573  52.681  0.00  0.00    -0.286 OA
ENDBRANCH   2   9
BRANCH   1  20
ATOM     20  C   UNL d   1      53.468  32.998  54.425  0.00  0.00     0.303 C 
ATOM     21  O   UNL d   1      52.871  33.300  54.897  0.00  0.00    -0.259 OA
BRANCH  20  22
ATOM     22  O   UNL d   1      54.238  33.287  54.482  0.00  0.00    -0.271 OA
BRANCH  22  23
ATOM     23  C   UNL d   1      54.516  33.534  55.214  0.00  0.00     0.126 C 
ATOM     24  C   UNL d   1      55.262  33.867  55.283  0.00  0.00     0.029 C 
ENDBRANCH  22  23
ENDBRANCH  20  22
ENDBRANCH   1  20
TORSDOF 4
ENDMDL
MODEL 3
REMARK VINA RESULT:      -7.0      1.678      3.622
REMARK  4 active torsions:
REMARK  status: ('A' for Active; 'I' for Inactive)
REMARK    1  A    between atoms: C_8  and  C_1 
REMARK    2  A    between atoms: C_4  and  C_2 
REMARK    3  A    between atoms: O_16  and  C_8 
REMARK    4  A    between atoms: C_21  and  O_16 
ROOT
ATOM      1  C   UNL d   1      53.378  33.601  54.035  0.00  0.00     0.099 A 
ATOM      2  C   UNL d   1      52.882  34.244  53.894  0.00  0.00     0.096 A 
ATOM      3  C   UNL d   1      53.795  33.550  54.760  0.00  0.00     0.093 A 
ATOM      4  C   UNL d   1      53.211  34.781  55.183  0.00  0.00     0.369 A 
ATOM      5  N   UNL d   1      53.708  34.144  55.332  0.00  0.00    -0.191 NA
ATOM      6  N   UNL d   1      52.799  34.832  54.467  0.00  0.00    -0.191 NA
ATOM      7  O   UNL d   1      53.124  35.375  55.754  0.00  0.00    -0.242 OA
ATOM      8  C   UNL d   1      54.291  32.916  54.910  0.00  0.00     0.021 C 
ENDROOT
BRANCH   2   9
ATOM      9  C   UNL d   1      52.475  34.294  53.188  0.00  0.00     0.057 A 
ATOM     10  C   UNL d   1      51.665  34.145  53.159  0.00  0.00     0.005 A 
ATOM     11  C   UNL d   1      51.253  34.195  52.443  0.00  0.00     0.000 A 
ATOM     12  C   UNL d   1      51.266  33.943  53.859  0.00  0.00     0.000 A 
ATOM     13  C   UNL d   1      50.440  34.043  52.424  0.00  0.00     0.000 A 
ATOM     14  C   UNL d   1      51.650  34.395  51.753  0.00  0.00     0.003 A 
ATOM     15  C   UNL d   1      50.041  33.843  53.116  0.00  0.00     0.000 A 
ATOM     16  C   UNL d   1      50.453  33.792  53.831  0.00  0.00     0.000 A 
ATOM     17  C   UNL d   1      52.462  34.546  51.772  0.00  0.00     0.042 A 
ATOM     18  C   UNL d   1      52.891  34.494  52.516  0.00  0.00     0.197 A 
ATOM     19  O   UNL d   1      53.218  34.696  51.743  0.00  0.00    -0.286 OA
ENDBRANCH   2   9
BRANCH   1  20
ATOM     20  C   UNL d   1      53.457  33.017  53.460  0.00  0.00     0.303 C 
ATOM     21  O   UNL d   1      53.926  33.150  52.801  0.00  0.00    -0.259 OA
BRANCH  20  22
ATOM     22  O   UNL d   1      53.059  32.302  53.557  0.00  0.00    -0.271 OA
BRANCH  22  23
ATOM     23  C   UNL d   1      53.384  31.620  53.235  0.00  0.00     0.126 C 
ATOM     24  C   UNL d   1      52.937  30.935  53.180  0.00  0.00     0.029 C 
ENDBRANCH  22  23
ENDBRANCH  20  22
ENDBRANCH   1  20
TORSDOF 4
ENDMDL
MODEL 4
REMARK VINA RESULT:      -6.8      1.160      2.188
REMARK  4 active torsions:
REMARK  status: ('A' for Active; 'I' for Inactive)
REMARK    1  A    between atoms: C_8  and  C_1 
REMARK    2  A    between atoms: C_4  and  C_2 
REMARK    3  A    between atoms: O_16  and  C_8 
REMARK    4  A    between atoms: C_21  and  O_16 
ROOT
ATOM      1  C   UNL d   1      52.715  32.541  53.230  0.00  0.00     0.099 A 
ATOM      2  C   UNL d   1      53.080  33.251  53.438  0.00  0.00     0.096 A 
ATOM      3  C   UNL d   1      51.904  32.538  53.021  0.00  0.00     0.093 A 
ATOM      4  C   UNL d   1      51.843  33.948  53.233  0.00  0.00     0.369 A 
ATOM      5  N   UNL d   1      51.471  33.245  53.024  0.00  0.00    -0.191 NA
ATOM      6  N   UNL d   1      52.644  33.951  53.439  0.00  0.00    -0.191 NA
ATOM      7  O   UNL d   1      51.411  34.655  53.237  0.00  0.00    -0.242 OA
ATOM      8  C   UNL d   1      51.531  31.839  52.813  0.00  0.00     0.021 C 
ENDROOT
BRANCH   2   9
ATOM      9  C   UNL d   1      53.871  33.254  53.642  0.00  0.00     0.057 A 
ATOM     10  C   UNL d   1      54.104  33.421  54.415  0.00  0.00     0.005 A 
ATOM     11  C   UNL d   1      54.905  33.424  54.621  0.00  0.00     0.000 A 
ATOM     12  C   UNL d   1      53.524  33.585  54.986  0.00  0.00     0.000 A 
ATOM     13  C   UNL d   1      55.130  33.592  55.399  0.00  0.00     0.000 A 
ATOM     14  C   UNL d   1      55.477  33.261  54.055  0.00  0.00     0.003 A 
ATOM     15  C   UNL d   1      54.557  33.756  55.968  0.00  0.00     0.000 A 
ATOM     16  C   UNL d   1      53.757  33.752  55.762  0.00  0.00     0.000 A 
ATOM     17  C   UNL d   1      55.252  33.093  53.277  0.00  0.00     0.042 A 
ATOM     18  C   UNL d   1      54.419  33.090  53.063  0.00  0.00     0.197 A 
ATOM     19  O   UNL d   1      55.089  32.931  52.541  0.00  0.00    -0.286 OA
ENDBRANCH   2   9
BRANCH   1  20
ATOM     20  C   UNL d   1      53.155  31.845  53.230  0.00  0.00     0.303 C 
ATOM     21  O   UNL d   1      53.662  31.679  52.608  0.00  0.00    -0.259 OA
BRANCH  20  22
ATOM     22  O   UNL d   1      53.076  31.322  53.862  0.00  0.00    -0.271 OA
BRANCH  22  23
ATOM     23  C   UNL d   1      53.205  30.521  53.732  0.00  0.00     0.126 C 
ATOM     24  C   UNL d   1      53.231  29.999  54.363  0.00  0.00     0.029 C 
ENDBRANCH  22  23
ENDBRANCH  20  22
ENDBRANCH   1  20
TORSDOF 4
ENDMDL
MODEL 5
REMARK VINA RESULT:      -6.5      1.455      3.141
REMARK  4 active torsions:
REMARK  status: ('A' for Active; 'I' for Inactive)
REMARK    1  A    between atoms: C_8  and  C_1 
REMARK    2  A    between atoms: C_4  and  C_2 
REMARK    3  A    between atoms: O_16  and  C_8 
REMARK    4  A    between atoms: C_21  and  O_16 
ROOT
ATOM      1  C   UNL d   1      52.944  33.666  53.822  0.00  0.00     0.099 A 
ATOM      2  C   UNL d   1      52.903  33.163  53.170  0.00  0.00     0.096 A 
ATOM      3  C   UNL d   1      52.499  34.376  53.826  0.00  0.00     0.093 A 
ATOM      4  C   UNL d   1      51.987  34.063  52.531  0.00  0.00     0.369 A 
ATOM      5  N   UNL d   1      52.021  34.570  53.178  0.00  0.00    -0.191 NA
ATOM      6  N   UNL d   1      52.426  33.362  52.527  0.00  0.00    -0.191 NA
ATOM      7  O   UNL d   1      51.510  34.257  51.883  0.00  0.00    -0.242 OA
ATOM      8  C   UNL d   1      52.531  34.883  54.469  0.00  0.00     0.021 C 
ENDROOT
BRANCH   2   9
ATOM      9  C   UNL d   1      53.337  32.471  53.166  0.00  0.00     0.057 A 
ATOM     10  C   UNL d   1      52.962  31.740  53.234  0.00  0.00     0.005 A 
ATOM     11  C   UNL d   1      53.401  31.040  53.230  0.00  0.00     0.000 A 
ATOM     12  C   UNL d   1      52.135  31.716  53.308  0.00  0.00     0.000 A 
ATOM     13  C   UNL d   1      53.015  30.311  53.300  0.00  0.00     0.000 A 
ATOM     14  C   UNL d   1      54.218  31.066  53.157  0.00  0.00     0.003 A 
ATOM     15  C   UNL d   1      52.196  30.283  53.373  0.00  0.00     0.000 A 
ATOM     16  C   UNL d   1      51.756  30.984  53.377  0.00  0.00     0.000 A 
ATOM     17  C   UNL d   1      54.603  31.794  53.088  0.00  0.00     0.042 A 
ATOM     18  C   UNL d   1      54.147  32.523  53.092  0.00  0.00     0.197 A 
ATOM     19  O   UNL d   1      55.004  32.449  53.021  0.00  0.00    -0.286 OA
ENDBRANCH   2   9
BRANCH   1  20
ATOM     20  C   UNL d   1      53.422  33.463  54.461  0.00  0.00     0.303 C 
ATOM     21  O   UNL d   1      53.170  32.899  54.999  0.00  0.00    -0.259 OA
BRANCH  20  22
ATOM     22  O   UNL d   1      54.153  33.833  54.549  0.00  0.00    -0.271 OA
BRANCH  22  23
ATOM     23  C   UNL d   1      54.463  33.924  55.303  0.00  0.00     0.126 C 
ATOM     24  C   UNL d   1      55.249  34.130  55.406  0.00  0.00     0.029 C 
ENDBRANCH  22  23
ENDBRANCH  20  22
ENDBRANCH   1  20
TORSDOF 4
ENDMDL
MODEL 6
REMARK VINA RESULT:      -5.5      1.412      2.764
REMARK  4 active torsions:
REMARK  status: ('A' for Active; 'I' for Inactive)
REMARK    1  A    between atoms: C_8  and  C_1 
REMARK    2  A    between atoms: C_4  and  C_2 
REMARK    3  A    between atoms: O_16  and  C_8 
REMARK    4  A    between atoms: C_21  and  O_16 
ROOT
ATOM      1  C   UNL d   1      53.184  33.473  54.234  0.00  0.00     0.099 A 
ATOM      2  C   UNL d   1      53.710  32.858  54.071  0.00  0.00     0.096 A 
ATOM      3  C   UNL d   1      53.453  34.148  54.652  0.00  0.00     0.093 A 
ATOM      4  C   UNL d   1      54.759  33.578  54.732  0.00  0.00     0.369 A 
ATOM      5  N   UNL d   1      54.242  34.195  54.900  0.00  0.00    -0.191 NA
ATOM      6  N   UNL d   1      54.494  32.912  54.320  0.00  0.00    -0.191 NA
ATOM      7  O   UNL d   1      55.548  33.626  54.980  0.00  0.00    -0.242 OA
ATOM      8  C   UNL d   1      52.940  34.763  54.820  0.00  0.00     0.021 C 
ENDROOT
BRANCH   2   9
ATOM      9  C   UNL d   1      53.448  32.200  53.663  0.00  0.00     0.057 A 
ATOM     10  C   UNL d   1      53.395  31.468  54.038  0.00  0.00     0.005 A 
ATOM     11  C   UNL d   1      53.130  30.802  53.626  0.00  0.00     0.000 A 
ATOM     12  C   UNL d   1      53.612  31.407  54.838  0.00  0.00     0.000 A 
ATOM     13  C   UNL d   1      53.081  30.072  54.010  0.00  0.00     0.000 A 
ATOM     14  C   UNL d   1      52.916  30.865  52.836  0.00  0.00     0.003 A 
ATOM     15  C   UNL d   1      53.295  30.007  54.803  0.00  0.00     0.000 A 
ATOM     16  C   UNL d   1      53.560  30.673  55.216  0.00  0.00     0.000 A 
ATOM     17  C   UNL d   1      52.966  31.596  52.451  0.00  0.00     0.042 A 
ATOM     18  C   UNL d   1      53.242  32.288  52.880  0.00  0.00     0.197 A 
ATOM     19  O   UNL d   1      52.996  32.255  52.053  0.00  0.00    -0.286 OA
ENDBRANCH   2   9
BRANCH   1  20
ATOM     20  C   UNL d   1      52.403  33.414  53.983  0.00  0.00     0.303 C 
ATOM     21  O   UNL d   1      51.883  32.912  54.371  0.00  0.00    -0.259 OA
BRANCH  20  22
ATOM     22  O   UNL d   1      52.153  33.865  53.340  0.00  0.00    -0.271 OA
BRANCH  22  23
ATOM     23  C   UNL d   1      51.371  34.114  53.311  0.00  0.00     0.126 C 
ATOM     24  C   UNL d   1      51.074  34.465  52.632  0.00  0.00     0.029 C 
ENDBRANCH  22  23
ENDBRANCH  20  22
ENDBRANCH   1  20
TORSDOF 4
ENDMDL
