MODEL 1
REMARK VINA RESULT:      60.1      0.000      0.000
REMARK  2 active torsions:
REMARK  status: ('A' for Active; 'I' for Inactive)
REMARK    1  A    between atoms: C_6  and  C_1 
REMARK    2  A    between atoms: C_9  and  C_2 
ROOT
ATOM      1  C   UNL d   1     -51.136  26.141  33.410  0.00  0.00     0.039 A 
ATOM      2  C   UNL d   1     -51.818  25.688  33.362  0.00  0.00     0.120 A 
ATOM      3  N   UNL d   1     -52.468  26.198  33.316  0.00  0.00    -0.164 NA
ATOM      4  N   UNL d   1     -52.178  26.964  33.336  0.00  0.00    -0.228 N 
ATOM      5  C   UNL d   1     -51.355  26.931  33.394  0.00  0.00     0.085 A 
ATOM      6  C   UNL d   1     -52.399  27.763  33.321  0.00  0.00     0.101 A 
ATOM      7  C   UNL d   1     -51.069  27.712  33.415  0.00  0.00     0.021 A 
ATOM      8  C   UNL d   1     -51.714  28.220  33.369  0.00  0.00     0.022 A 
ENDROOT
BRANCH   1   9
ATOM      9  C   UNL d   1     -50.364  25.857  33.464  0.00  0.00     0.006 A 
ATOM     10  C   UNL d   1     -49.755  26.359  33.669  0.00  0.00     0.018 A 
ATOM     11  C   UNL d   1     -48.983  26.075  33.724  0.00  0.00     0.085 A 
ATOM     12  C   UNL d   1     -49.911  27.158  33.823  0.00  0.00     0.005 A 
ATOM     13  C   UNL d   1     -48.361  26.587  33.933  0.00  0.00     0.061 A 
ATOM     14  N   UNL d   1     -48.825  25.279  33.570  0.00  0.00    -0.244 NA
ATOM     15  C   UNL d   1     -48.527  27.383  34.084  0.00  0.00     0.197 A 
ATOM     16  C   UNL d   1     -49.291  27.664  34.030  0.00  0.00     0.042 A 
ATOM     17  O   UNL d   1     -47.908  27.888  34.291  0.00  0.00    -0.286 OA
ATOM     18  C   UNL d   1     -49.437  24.771  33.364  0.00  0.00     0.099 A 
ATOM     19  C   UNL d   1     -50.211  25.060  33.310  0.00  0.00     0.021 A 
ENDBRANCH   1   9
BRANCH   2  20
ATOM     20  C   UNL d   1     -51.855  24.865  33.359  0.00  0.00     0.101 A 
ATOM     21  N   UNL d   1     -52.583  24.484  33.401  0.00  0.00    -0.242 NA
ATOM     22  C   UNL d   1     -52.624  23.671  33.399  0.00  0.00     0.099 A 
ATOM     23  C   UNL d   1     -51.927  23.220  33.354  0.00  0.00     0.021 A 
ATOM     24  C   UNL d   1     -51.194  23.602  33.311  0.00  0.00     0.003 A 
ATOM     25  C   UNL d   1     -51.167  24.425  33.315  0.00  0.00     0.021 A 
ENDBRANCH   2  20
TORSDOF 2
ENDMDL
