MODEL 1
REMARK VINA RESULT:      -3.6      0.000      0.000
REMARK  4 active torsions:
REMARK  status: ('A' for Active; 'I' for Inactive)
REMARK    1  A    between atoms: N_9  and  C_1 
REMARK    2  A    between atoms: C_5  and  O_12 
REMARK    3  A    between atoms: C_13  and  N_9 
REMARK    4  A    between atoms: O_12  and  C_17 
ROOT
ATOM      1  C   UNL d   1      31.269  17.159 -24.382  0.00  0.00     0.083 A 
ATOM      2  C   UNL d   1      32.581  17.977 -23.798  0.00  0.00     0.102 A 
ATOM      3  C   UNL d   1      31.655  16.886 -23.694  0.00  0.00     0.021 A 
ATOM      4  C   UNL d   1      31.535  17.833 -24.773  0.00  0.00     0.021 A 
ATOM      5  C   UNL d   1      32.309  17.296 -23.406  0.00  0.00     0.026 A 
ATOM      6  C   UNL d   1      32.194  18.241 -24.479  0.00  0.00     0.026 A 
ENDROOT
BRANCH   1   7
ATOM      7  N   UNL d   1      30.610  16.742 -24.669  0.00  0.00    -0.227 NA
BRANCH   7   8
ATOM      8  C   UNL d   1      29.848  17.020 -24.511  0.00  0.00     0.169 A 
ATOM      9  C   UNL d   1      29.354  16.587 -24.087  0.00  0.00     0.094 A 
ATOM     10  C   UNL d   1      28.628  16.858 -23.940  0.00  0.00     0.190 A 
ATOM     11  C   UNL d   1      29.074  15.453 -23.383  0.00  0.00     0.128 A 
ATOM     12  N   UNL d   1      28.136  16.417 -23.514  0.00  0.00    -0.128 NA
ATOM     13  N   UNL d   1      28.402  17.545 -24.209  0.00  0.00    -0.203 NA
ATOM     14  N   UNL d   1      28.349  15.724 -23.236  0.00  0.00    -0.145 NA
ATOM     15  C   UNL d   1      28.894  17.986 -24.636  0.00  0.00     0.202 A 
ATOM     16  N   UNL d   1      29.621  17.722 -24.787  0.00  0.00    -0.205 NA
ENDBRANCH   7   8
ENDBRANCH   1   7
BRANCH   2  17
ATOM     17  O   UNL d   1      33.235  18.387 -23.510  0.00  0.00    -0.253 OA
BRANCH  17  18
ATOM     18  C   UNL d   1      33.123  19.015 -22.985  0.00  0.00     0.530 C 
ATOM     19  F   UNL d   1      33.138  19.797 -23.256  0.00  0.00    -0.144 F 
ATOM     20  F   UNL d   1      32.995  18.858 -22.186  0.00  0.00    -0.144 F 
ATOM     21  F   UNL d   1      32.952  19.961 -22.184  0.00  0.00    -0.144 F 
ENDBRANCH  17  18
ENDBRANCH   2  17
TORSDOF 4
ENDMDL
MODEL 2
REMARK VINA RESULT:      -3.4      2.956      4.380
REMARK  4 active torsions:
REMARK  status: ('A' for Active; 'I' for Inactive)
REMARK    1  A    between atoms: N_9  and  C_1 
REMARK    2  A    between atoms: C_5  and  O_12 
REMARK    3  A    between atoms: C_13  and  N_9 
REMARK    4  A    between atoms: O_12  and  C_17 
ROOT
ATOM      1  C   UNL d   1      31.412  17.216 -24.478  0.00  0.00     0.083 A 
ATOM      2  C   UNL d   1      29.889  16.586 -24.356  0.00  0.00     0.102 A 
ATOM      3  C   UNL d   1      30.771  17.609 -24.840  0.00  0.00     0.021 A 
ATOM      4  C   UNL d   1      31.293  16.516 -24.060  0.00  0.00     0.021 A 
ATOM      5  C   UNL d   1      30.013  17.292 -24.778  0.00  0.00     0.026 A 
ATOM      6  C   UNL d   1      30.528  16.203 -24.000  0.00  0.00     0.026 A 
ENDROOT
BRANCH   1   7
ATOM      7  N   UNL d   1      32.175  17.538 -24.544  0.00  0.00    -0.227 NA
BRANCH   7   8
ATOM      8  C   UNL d   1      32.465  18.031 -23.948  0.00  0.00     0.169 A 
ATOM      9  C   UNL d   1      32.715  18.751 -24.122  0.00  0.00     0.094 A 
ATOM     10  C   UNL d   1      32.991  19.215 -23.548  0.00  0.00     0.190 A 
ATOM     11  C   UNL d   1      32.947  19.739 -25.034  0.00  0.00     0.128 A 
ATOM     12  N   UNL d   1      33.241  19.938 -23.730  0.00  0.00    -0.128 NA
ATOM     13  N   UNL d   1      33.016  18.967 -22.817  0.00  0.00    -0.203 NA
ATOM     14  N   UNL d   1      33.222  20.203 -24.460  0.00  0.00    -0.145 NA
ATOM     15  C   UNL d   1      32.766  18.244 -22.635  0.00  0.00     0.202 A 
ATOM     16  N   UNL d   1      32.489  17.774 -23.203  0.00  0.00    -0.205 NA
ENDBRANCH   7   8
ENDBRANCH   1   7
BRANCH   2  17
ATOM     17  O   UNL d   1      29.131  16.269 -24.293  0.00  0.00    -0.253 OA
BRANCH  17  18
ATOM     18  C   UNL d   1      28.620  16.549 -23.707  0.00  0.00     0.530 C 
ATOM     19  F   UNL d   1      28.626  16.214 -22.950  0.00  0.00    -0.144 F 
ATOM     20  F   UNL d   1      28.102  17.166 -23.880  0.00  0.00    -0.144 F 
ATOM     21  F   UNL d   1      27.844  16.977 -22.824  0.00  0.00    -0.144 F 
ENDBRANCH  17  18
ENDBRANCH   2  17
TORSDOF 4
ENDMDL
MODEL 3
REMARK VINA RESULT:      -3.3      2.159      3.064
REMARK  4 active torsions:
REMARK  status: ('A' for Active; 'I' for Inactive)
REMARK    1  A    between atoms: N_9  and  C_1 
REMARK    2  A    between atoms: C_5  and  O_12 
REMARK    3  A    between atoms: C_13  and  N_9 
REMARK    4  A    between atoms: O_12  and  C_17 
ROOT
ATOM      1  C   UNL d   1      33.238  18.942 -22.978  0.00  0.00     0.083 A 
ATOM      2  C   UNL d   1      33.235  20.275 -22.000  0.00  0.00     0.102 A 
ATOM      3  C   UNL d   1      33.241  18.848 -22.149  0.00  0.00     0.021 A 
ATOM      4  C   UNL d   1      33.233  19.695 -23.314  0.00  0.00     0.021 A 
ATOM      5  C   UNL d   1      33.240  19.514 -21.664  0.00  0.00     0.026 A 
ATOM      6  C   UNL d   1      33.232  20.361 -22.821  0.00  0.00     0.026 A 
ENDROOT
BRANCH   1   7
ATOM      7  N   UNL d   1      33.239  18.268 -23.464  0.00  0.00    -0.227 NA
BRANCH   7   8
ATOM      8  C   UNL d   1      32.523  17.952 -23.729  0.00  0.00     0.169 A 
ATOM      9  C   UNL d   1      32.392  17.184 -23.679  0.00  0.00     0.094 A 
ATOM     10  C   UNL d   1      31.707  16.889 -23.934  0.00  0.00     0.190 A 
ATOM     11  C   UNL d   1      32.801  15.930 -23.328  0.00  0.00     0.128 A 
ATOM     12  N   UNL d   1      31.582  16.115 -23.881  0.00  0.00    -0.128 NA
ATOM     13  N   UNL d   1      31.165  17.352 -24.232  0.00  0.00    -0.203 NA
ATOM     14  N   UNL d   1      32.116  15.636 -23.583  0.00  0.00    -0.145 NA
ATOM     15  C   UNL d   1      31.291  18.126 -24.286  0.00  0.00     0.202 A 
ATOM     16  N   UNL d   1      31.973  18.428 -24.033  0.00  0.00    -0.205 NA
ENDBRANCH   7   8
ENDBRANCH   1   7
BRANCH   2  17
ATOM     17  O   UNL d   1      33.234  20.941 -21.515  0.00  0.00    -0.253 OA
BRANCH  17  18
ATOM     18  C   UNL d   1      32.515  21.281 -21.293  0.00  0.00     0.530 C 
ATOM     19  F   UNL d   1      32.099  20.993 -20.637  0.00  0.00    -0.144 F 
ATOM     20  F   UNL d   1      32.213  21.912 -21.728  0.00  0.00    -0.144 F 
ATOM     21  F   UNL d   1      31.427  21.802 -20.962  0.00  0.00    -0.144 F 
ENDBRANCH  17  18
ENDBRANCH   2  17
TORSDOF 4
ENDMDL
MODEL 4
REMARK VINA RESULT:      -3.0      0.965      1.465
REMARK  4 active torsions:
REMARK  status: ('A' for Active; 'I' for Inactive)
REMARK    1  A    between atoms: N_9  and  C_1 
REMARK    2  A    between atoms: C_5  and  O_12 
REMARK    3  A    between atoms: C_13  and  N_9 
REMARK    4  A    between atoms: O_12  and  C_17 
ROOT
ATOM      1  C   UNL d   1      31.864  17.106 -24.112  0.00  0.00     0.083 A 
ATOM      2  C   UNL d   1      32.784  18.338 -23.507  0.00  0.00     0.102 A 
ATOM      3  C   UNL d   1      32.483  16.937 -23.580  0.00  0.00     0.021 A 
ATOM      4  C   UNL d   1      31.706  17.882 -24.340  0.00  0.00     0.021 A 
ATOM      5  C   UNL d   1      32.940  17.553 -23.280  0.00  0.00     0.026 A 
ATOM      6  C   UNL d   1      32.169  18.498 -24.034  0.00  0.00     0.026 A 
ENDROOT
BRANCH   1   7
ATOM      7  N   UNL d   1      31.405  16.482 -24.413  0.00  0.00    -0.227 NA
BRANCH   7   8
ATOM      8  C   UNL d   1      30.832  16.127 -23.936  0.00  0.00     0.169 A 
ATOM      9  C   UNL d   1      30.087  16.100 -24.172  0.00  0.00     0.094 A 
ATOM     10  C   UNL d   1      29.546  15.760 -23.711  0.00  0.00     0.190 A 
ATOM     11  C   UNL d   1      29.125  16.381 -25.097  0.00  0.00     0.128 A 
ATOM     12  N   UNL d   1      28.798  15.737 -23.955  0.00  0.00    -0.128 NA
ATOM     13  N   UNL d   1      29.743  15.453 -23.031  0.00  0.00    -0.203 NA
ATOM     14  N   UNL d   1      28.583  16.041 -24.637  0.00  0.00    -0.145 NA
ATOM     15  C   UNL d   1      30.490  15.476 -22.787  0.00  0.00     0.202 A 
ATOM     16  N   UNL d   1      31.037  15.814 -23.242  0.00  0.00    -0.205 NA
ENDBRANCH   7   8
ENDBRANCH   1   7
BRANCH   2  17
ATOM     17  O   UNL d   1      33.241  18.954 -23.206  0.00  0.00    -0.253 OA
BRANCH  17  18
ATOM     18  C   UNL d   1      32.922  19.456 -22.633  0.00  0.00     0.530 C 
ATOM     19  F   UNL d   1      32.753  20.247 -22.814  0.00  0.00    -0.144 F 
ATOM     20  F   UNL d   1      32.771  19.165 -21.877  0.00  0.00    -0.144 F 
ATOM     21  F   UNL d   1      32.438  20.211 -21.760  0.00  0.00    -0.144 F 
ENDBRANCH  17  18
ENDBRANCH   2  17
TORSDOF 4
ENDMDL
MODEL 5
REMARK VINA RESULT:      -2.8      3.096      4.186
REMARK  4 active torsions:
REMARK  status: ('A' for Active; 'I' for Inactive)
REMARK    1  A    between atoms: N_9  and  C_1 
REMARK    2  A    between atoms: C_5  and  O_12 
REMARK    3  A    between atoms: C_13  and  N_9 
REMARK    4  A    between atoms: O_12  and  C_17 
ROOT
ATOM      1  C   UNL d   1      31.227  16.350 -24.047  0.00  0.00     0.083 A 
ATOM      2  C   UNL d   1      29.668  15.815 -23.934  0.00  0.00     0.102 A 
ATOM      3  C   UNL d   1      30.895  16.199 -23.297  0.00  0.00     0.021 A 
ATOM      4  C   UNL d   1      30.786  16.235 -24.733  0.00  0.00     0.021 A 
ATOM      5  C   UNL d   1      30.117  15.932 -23.244  0.00  0.00     0.026 A 
ATOM      6  C   UNL d   1      30.004  15.967 -24.673  0.00  0.00     0.026 A 
ENDROOT
BRANCH   1   7
ATOM      7  N   UNL d   1      32.012  16.619 -24.097  0.00  0.00    -0.227 NA
BRANCH   7   8
ATOM      8  C   UNL d   1      32.164  17.416 -24.255  0.00  0.00     0.169 A 
ATOM      9  C   UNL d   1      32.521  17.860 -23.720  0.00  0.00     0.094 A 
ATOM     10  C   UNL d   1      32.663  18.619 -23.878  0.00  0.00     0.190 A 
ATOM     11  C   UNL d   1      33.099  18.007 -22.494  0.00  0.00     0.128 A 
ATOM     12  N   UNL d   1      33.023  19.061 -23.336  0.00  0.00    -0.128 NA
ATOM     13  N   UNL d   1      32.452  18.928 -24.555  0.00  0.00    -0.203 NA
ATOM     14  N   UNL d   1      33.241  18.766 -22.652  0.00  0.00    -0.145 NA
ATOM     15  C   UNL d   1      32.092  18.486 -25.097  0.00  0.00     0.202 A 
ATOM     16  N   UNL d   1      31.947  17.726 -24.946  0.00  0.00    -0.205 NA
ENDBRANCH   7   8
ENDBRANCH   1   7
BRANCH   2  17
ATOM     17  O   UNL d   1      28.890  15.548 -23.881  0.00  0.00    -0.253 OA
BRANCH  17  18
ATOM     18  C   UNL d   1      28.302  16.059 -23.605  0.00  0.00     0.530 C 
ATOM     19  F   UNL d   1      27.924  16.583 -24.123  0.00  0.00    -0.144 F 
ATOM     20  F   UNL d   1      28.093  16.043 -22.808  0.00  0.00    -0.144 F 
ATOM     21  F   UNL d   1      27.413  16.829 -23.180  0.00  0.00    -0.144 F 
ENDBRANCH  17  18
ENDBRANCH   2  17
TORSDOF 4
ENDMDL
MODEL 6
REMARK VINA RESULT:      -2.7      3.671      5.171
REMARK  4 active torsions:
REMARK  status: ('A' for Active; 'I' for Inactive)
REMARK    1  A    between atoms: N_9  and  C_1 
REMARK    2  A    between atoms: C_5  and  O_12 
REMARK    3  A    between atoms: C_13  and  N_9 
REMARK    4  A    between atoms: O_12  and  C_17 
ROOT
ATOM      1  C   UNL d   1      33.141  20.250 -22.676  0.00  0.00     0.083 A 
ATOM      2  C   UNL d   1      32.940  18.715 -23.257  0.00  0.00     0.102 A 
ATOM      3  C   UNL d   1      32.963  20.132 -23.482  0.00  0.00     0.021 A 
ATOM      4  C   UNL d   1      33.218  19.608 -22.165  0.00  0.00     0.021 A 
ATOM      5  C   UNL d   1      32.863  19.366 -23.769  0.00  0.00     0.026 A 
ATOM      6  C   UNL d   1      33.116  18.839 -22.460  0.00  0.00     0.026 A 
ENDROOT
BRANCH   1   7
ATOM      7  N   UNL d   1      33.241  21.024 -22.391  0.00  0.00    -0.227 NA
BRANCH   7   8
ATOM      8  C   UNL d   1      32.735  21.314 -21.805  0.00  0.00     0.169 A 
ATOM      9  C   UNL d   1      32.495  22.057 -21.828  0.00  0.00     0.094 A 
ATOM     10  C   UNL d   1      32.012  22.327 -21.266  0.00  0.00     0.190 A 
ATOM     11  C   UNL d   1      32.486  23.283 -22.426  0.00  0.00     0.128 A 
ATOM     12  N   UNL d   1      31.774  23.076 -21.296  0.00  0.00    -0.128 NA
ATOM     13  N   UNL d   1      31.775  21.865 -20.694  0.00  0.00    -0.203 NA
ATOM     14  N   UNL d   1      32.003  23.553 -21.864  0.00  0.00    -0.145 NA
ATOM     15  C   UNL d   1      32.013  21.116 -20.665  0.00  0.00     0.202 A 
ATOM     16  N   UNL d   1      32.496  20.839 -21.223  0.00  0.00    -0.205 NA
ENDBRANCH   7   8
ENDBRANCH   1   7
BRANCH   2  17
ATOM     17  O   UNL d   1      32.840  17.949 -23.544  0.00  0.00    -0.253 OA
BRANCH  17  18
ATOM     18  C   UNL d   1      32.085  17.615 -23.559  0.00  0.00     0.530 C 
ATOM     19  F   UNL d   1      31.473  17.980 -23.981  0.00  0.00    -0.144 F 
ATOM     20  F   UNL d   1      31.943  16.914 -23.150  0.00  0.00    -0.144 F 
ATOM     21  F   UNL d   1      30.943  17.104 -23.577  0.00  0.00    -0.144 F 
ENDBRANCH  17  18
ENDBRANCH   2  17
TORSDOF 4
ENDMDL
