MODEL 1
REMARK VINA RESULT:      18.3      0.000      0.000
REMARK  2 active torsions:
REMARK  status: ('A' for Active; 'I' for Inactive)
REMARK    1  A    between atoms: C_5  and  N_1 
REMARK    2  A    between atoms: C_7  and  C_5 
ROOT
ATOM      1  N   UNL d   1      57.907  49.677  51.044  0.00  0.00    -0.288 N 
ATOM      2  C   UNL d   1      57.434  49.671  51.714  0.00  0.00     0.183 A 
ATOM      3  N   UNL d   1      56.626  49.672  51.455  0.00  0.00    -0.224 NA
ATOM      4  C   UNL d   1      57.441  49.681  50.387  0.00  0.00     0.083 A 
ATOM      5  C   UNL d   1      56.627  49.678  50.648  0.00  0.00     0.099 A 
ATOM      6  C   UNL d   1      57.614  49.687  49.581  0.00  0.00     0.019 A 
ATOM      7  C   UNL d   1      56.035  49.681  50.057  0.00  0.00     0.021 A 
ATOM      8  C   UNL d   1      57.004  49.690  49.026  0.00  0.00     0.002 A 
ATOM      9  C   UNL d   1      56.218  49.687  49.278  0.00  0.00     0.002 A 
ENDROOT
BRANCH   1  10
ATOM     10  C   UNL d   1      58.431  49.682  50.443  0.00  0.00     0.066 C 
ATOM     11  C   UNL d   1      58.179  49.707  49.657  0.00  0.00     0.019 C 
BRANCH  10  12
ATOM     12  C   UNL d   1      59.237  49.663  50.616  0.00  0.00     0.016 A 
ATOM     13  C   UNL d   1      59.491  49.707  51.400  0.00  0.00     0.001 A 
ATOM     14  C   UNL d   1      60.298  49.687  51.574  0.00  0.00     0.000 A 
ATOM     15  C   UNL d   1      60.854  49.623  50.962  0.00  0.00     0.000 A 
ATOM     16  C   UNL d   1      60.600  49.579  50.179  0.00  0.00     0.000 A 
ATOM     17  C   UNL d   1      59.789  49.599  50.007  0.00  0.00     0.001 A 
ENDBRANCH  10  12
ENDBRANCH   1  10
TORSDOF 2
ENDMDL
