MODEL 1
REMARK VINA RESULT:      -6.4      0.000      0.000
REMARK  4 active torsions:
REMARK  status: ('A' for Active; 'I' for Inactive)
REMARK    1  A    between atoms: N_6  and  S_1 
REMARK    2  A    between atoms: C_10  and  S_1 
REMARK    3  A    between atoms: S_2  and  C_11 
REMARK    4  A    between atoms: N_7  and  S_2 
REMARK       I    between atoms: C_14  and  N_6 
REMARK       I    between atoms: C_15  and  N_7 
ROOT
ATOM      1  C   UNL d   1     -41.793-122.547 -50.834  0.00  0.00     0.040 A 
ATOM      2  C   UNL d   1     -41.782-122.320 -52.144  0.00  0.00     0.040 A 
ATOM      3  C   UNL d   1     -42.016-122.013 -51.412  0.00  0.00     0.196 A 
ATOM      4  C   UNL d   1     -41.417-123.042 -52.003  0.00  0.00     0.003 A 
ATOM      5  C   UNL d   1     -41.420-123.186 -51.200  0.00  0.00     0.003 A 
ATOM      6  C   UNL d   1     -41.593-123.165 -49.556  0.00  0.00     0.105 A 
ATOM      7  C   UNL d   1     -41.565-122.472 -53.534  0.00  0.00     0.105 A 
ATOM      8  C   UNL d   1     -41.879-122.540 -49.999  0.00  0.00     0.016 A 
ATOM      9  C   UNL d   1     -41.860-122.029 -52.914  0.00  0.00     0.016 A 
ATOM     10  C   UNL d   1     -41.123-123.483 -52.634  0.00  0.00     0.001 A 
ATOM     11  C   UNL d   1     -41.133-123.817 -50.746  0.00  0.00     0.001 A 
ATOM     12  O   UNL d   1     -42.406-121.293 -51.297  0.00  0.00    -0.287 OA
ATOM     13  C   UNL d   1     -41.196-123.198 -53.406  0.00  0.00     0.013 A 
ATOM     14  C   UNL d   1     -41.220-123.808 -49.920  0.00  0.00     0.013 A 
ENDROOT
BRANCH   6  15
ATOM     15  S   UNL d   1     -41.676-123.163 -48.736  0.00  0.00     0.288 S 
ATOM     16  O   UNL d   1     -41.171-123.816 -48.691  0.00  0.00    -0.198 OA
ATOM     17  O   UNL d   1     -42.183-122.508 -48.768  0.00  0.00    -0.198 OA
BRANCH  15  18
ATOM     18  N   UNL d   1     -41.749-123.174 -47.897  0.00  0.00    -0.118 NA
ATOM     19  C   UNL d   1     -42.438-123.471 -47.552  0.00  0.00     0.289 C 
ATOM     20  O   UNL d   1     -43.056-123.757 -48.032  0.00  0.00    -0.265 OA
ATOM     21  C   UNL d   1     -42.516-123.484 -46.742  0.00  0.00     0.068 C 
ENDBRANCH  15  18
ENDBRANCH   6  15
BRANCH   7  22
ATOM     22  S   UNL d   1     -41.642-122.181 -54.304  0.00  0.00     0.288 S 
ATOM     23  O   UNL d   1     -42.120-121.572 -54.017  0.00  0.00    -0.198 OA
ATOM     24  O   UNL d   1     -41.164-122.791 -54.592  0.00  0.00    -0.198 OA
BRANCH  22  25
ATOM     25  N   UNL d   1     -41.680-121.940 -55.097  0.00  0.00    -0.118 NA
ATOM     26  C   UNL d   1     -42.395-121.974 -55.502  0.00  0.00     0.289 C 
ATOM     27  O   UNL d   1     -42.428-121.733 -56.294  0.00  0.00    -0.265 OA
ATOM     28  C   UNL d   1     -43.073-122.244 -55.126  0.00  0.00     0.068 C 
ENDBRANCH  22  25
ENDBRANCH   7  22
TORSDOF 4
ENDMDL
MODEL 2
REMARK VINA RESULT:      -6.2      0.446      5.399
REMARK  4 active torsions:
REMARK  status: ('A' for Active; 'I' for Inactive)
REMARK    1  A    between atoms: N_6  and  S_1 
REMARK    2  A    between atoms: C_10  and  S_1 
REMARK    3  A    between atoms: S_2  and  C_11 
REMARK    4  A    between atoms: N_7  and  S_2 
REMARK       I    between atoms: C_14  and  N_6 
REMARK       I    between atoms: C_15  and  N_7 
ROOT
ATOM      1  C   UNL d   1     -41.793-122.305 -52.138  0.00  0.00     0.040 A 
ATOM      2  C   UNL d   1     -41.817-122.551 -50.833  0.00  0.00     0.040 A 
ATOM      3  C   UNL d   1     -42.033-122.007 -51.417  0.00  0.00     0.196 A 
ATOM      4  C   UNL d   1     -41.444-123.179 -51.207  0.00  0.00     0.003 A 
ATOM      5  C   UNL d   1     -41.427-123.034 -52.009  0.00  0.00     0.003 A 
ATOM      6  C   UNL d   1     -41.558-122.440 -53.547  0.00  0.00     0.105 A 
ATOM      7  C   UNL d   1     -41.634-123.180 -49.578  0.00  0.00     0.105 A 
ATOM      8  C   UNL d   1     -41.858-122.007 -52.920  0.00  0.00     0.016 A 
ATOM      9  C   UNL d   1     -41.915-122.547 -50.011  0.00  0.00     0.016 A 
ATOM     10  C   UNL d   1     -41.164-123.814 -50.762  0.00  0.00     0.001 A 
ATOM     11  C   UNL d   1     -41.125-123.468 -52.648  0.00  0.00     0.001 A 
ATOM     12  O   UNL d   1     -42.424-121.290 -51.282  0.00  0.00    -0.287 OA
ATOM     13  C   UNL d   1     -41.258-123.817 -49.942  0.00  0.00     0.013 A 
ATOM     14  C   UNL d   1     -41.190-123.170 -53.421  0.00  0.00     0.013 A 
ENDROOT
BRANCH   6  15
ATOM     15  S   UNL d   1     -41.620-122.150 -54.316  0.00  0.00     0.288 S 
ATOM     16  O   UNL d   1     -42.094-121.533 -54.037  0.00  0.00    -0.198 OA
ATOM     17  O   UNL d   1     -41.146-122.764 -54.608  0.00  0.00    -0.198 OA
BRANCH  15  18
ATOM     18  N   UNL d   1     -41.693-121.841 -55.096  0.00  0.00    -0.118 NA
ATOM     19  C   UNL d   1     -42.396-121.952 -55.514  0.00  0.00     0.289 C 
ATOM     20  O   UNL d   1     -43.028-122.368 -55.165  0.00  0.00    -0.265 OA
ATOM     21  C   UNL d   1     -42.473-121.657 -56.268  0.00  0.00     0.068 C 
ENDBRANCH  15  18
ENDBRANCH   6  15
BRANCH   7  22
ATOM     22  S   UNL d   1     -41.732-123.176 -48.757  0.00  0.00     0.288 S 
ATOM     23  O   UNL d   1     -42.337-122.621 -48.840  0.00  0.00    -0.198 OA
ATOM     24  O   UNL d   1     -41.126-123.732 -48.673  0.00  0.00    -0.198 OA
BRANCH  22  25
ATOM     25  N   UNL d   1     -41.780-123.218 -47.930  0.00  0.00    -0.118 NA
ATOM     26  C   UNL d   1     -42.479-123.462 -47.572  0.00  0.00     0.289 C 
ATOM     27  O   UNL d   1     -42.523-123.503 -46.745  0.00  0.00    -0.265 OA
ATOM     28  C   UNL d   1     -43.130-123.665 -48.028  0.00  0.00     0.068 C 
ENDBRANCH  22  25
ENDBRANCH   7  22
TORSDOF 4
ENDMDL
