MODEL 1
REMARK VINA RESULT:      -7.7      0.000      0.000
REMARK  1 active torsions:
REMARK  status: ('A' for Active; 'I' for Inactive)
REMARK    1  A    between atoms: C_6  and  C_1 
ROOT
ATOM      1  C   UNL d   1     -48.304  13.964  22.825  0.00  0.00     0.162 A 
ATOM      2  N   UNL d   1     -48.612  14.544  23.309  0.00  0.00    -0.225 NA
ATOM      3  N   UNL d   1     -48.875  13.761  22.268  0.00  0.00    -0.225 NA
ATOM      4  C   UNL d   1     -49.386  14.705  23.049  0.00  0.00     0.101 A 
ATOM      5  C   UNL d   1     -49.549  14.222  22.408  0.00  0.00     0.101 A 
ATOM      6  C   UNL d   1     -49.949  15.236  23.331  0.00  0.00     0.021 A 
ATOM      7  C   UNL d   1     -50.278  14.260  22.033  0.00  0.00     0.021 A 
ATOM      8  C   UNL d   1     -50.846  14.789  22.310  0.00  0.00     0.002 A 
ATOM      9  C   UNL d   1     -50.680  15.281  22.963  0.00  0.00     0.002 A 
ENDROOT
BRANCH   1  10
ATOM     10  C   UNL d   1     -47.547  13.633  22.882  0.00  0.00     0.037 A 
ATOM     11  C   UNL d   1     -47.439  12.878  23.203  0.00  0.00     0.024 A 
ATOM     12  C   UNL d   1     -46.687  12.549  23.260  0.00  0.00     0.103 A 
ATOM     13  N   UNL d   1     -46.595  11.785  23.587  0.00  0.00    -0.148 N 
ATOM     14  C   UNL d   1     -46.034  12.967  22.998  0.00  0.00     0.021 A 
ATOM     15  C   UNL d   1     -46.127  13.731  22.672  0.00  0.00     0.002 A 
ATOM     16  C   UNL d   1     -46.893  14.065  22.614  0.00  0.00     0.003 A 
ENDBRANCH   1  10
TORSDOF 1
ENDMDL
MODEL 2
REMARK VINA RESULT:      -7.6      0.916      3.679
REMARK  1 active torsions:
REMARK  status: ('A' for Active; 'I' for Inactive)
REMARK    1  A    between atoms: C_6  and  C_1 
ROOT
ATOM      1  C   UNL d   1     -48.516  13.530  22.999  0.00  0.00     0.162 A 
ATOM      2  N   UNL d   1     -47.724  13.665  22.857  0.00  0.00    -0.225 NA
ATOM      3  N   UNL d   1     -48.595  12.782  23.333  0.00  0.00    -0.225 NA
ATOM      4  C   UNL d   1     -47.304  12.991  23.107  0.00  0.00     0.101 A 
ATOM      5  C   UNL d   1     -47.841  12.446  23.400  0.00  0.00     0.101 A 
ATOM      6  C   UNL d   1     -46.498  12.824  23.095  0.00  0.00     0.021 A 
ATOM      7  C   UNL d   1     -47.584  11.722  23.688  0.00  0.00     0.021 A 
ATOM      8  C   UNL d   1     -46.778  11.548  23.679  0.00  0.00     0.002 A 
ATOM      9  C   UNL d   1     -46.231  12.103  23.381  0.00  0.00     0.002 A 
ENDROOT
BRANCH   1  10
ATOM     10  C   UNL d   1     -49.136  14.054  22.836  0.00  0.00     0.037 A 
ATOM     11  C   UNL d   1     -49.254  14.726  23.304  0.00  0.00     0.024 A 
ATOM     12  C   UNL d   1     -49.871  15.247  23.141  0.00  0.00     0.103 A 
ATOM     13  N   UNL d   1     -49.977  15.922  23.623  0.00  0.00    -0.148 N 
ATOM     14  C   UNL d   1     -50.375  15.105  22.513  0.00  0.00     0.021 A 
ATOM     15  C   UNL d   1     -50.269  14.430  22.032  0.00  0.00     0.002 A 
ATOM     16  C   UNL d   1     -49.641  13.900  22.197  0.00  0.00     0.003 A 
ENDBRANCH   1  10
TORSDOF 1
ENDMDL
MODEL 3
REMARK VINA RESULT:      -7.5      1.504      3.614
REMARK  1 active torsions:
REMARK  status: ('A' for Active; 'I' for Inactive)
REMARK    1  A    between atoms: C_6  and  C_1 
ROOT
ATOM      1  C   UNL d   1     -48.348  12.951  22.909  0.00  0.00     0.162 A 
ATOM      2  N   UNL d   1     -47.701  12.501  22.701  0.00  0.00    -0.225 NA
ATOM      3  N   UNL d   1     -48.096  13.725  23.029  0.00  0.00    -0.225 NA
ATOM      4  C   UNL d   1     -47.036  13.002  22.691  0.00  0.00     0.101 A 
ATOM      5  C   UNL d   1     -47.280  13.757  22.893  0.00  0.00     0.101 A 
ATOM      6  C   UNL d   1     -46.246  12.845  22.520  0.00  0.00     0.021 A 
ATOM      7  C   UNL d   1     -46.740  14.374  22.928  0.00  0.00     0.021 A 
ATOM      8  C   UNL d   1     -45.947  14.224  22.758  0.00  0.00     0.002 A 
ATOM      9  C   UNL d   1     -45.699  13.455  22.552  0.00  0.00     0.002 A 
ENDROOT
BRANCH   1  10
ATOM     10  C   UNL d   1     -49.126  12.678  22.988  0.00  0.00     0.037 A 
ATOM     11  C   UNL d   1     -49.711  12.912  22.451  0.00  0.00     0.024 A 
ATOM     12  C   UNL d   1     -50.484  12.642  22.529  0.00  0.00     0.103 A 
ATOM     13  N   UNL d   1     -51.064  12.887  21.980  0.00  0.00    -0.148 N 
ATOM     14  C   UNL d   1     -50.684  12.136  23.141  0.00  0.00     0.021 A 
ATOM     15  C   UNL d   1     -50.104  11.891  23.690  0.00  0.00     0.002 A 
ATOM     16  C   UNL d   1     -49.317  12.166  23.611  0.00  0.00     0.003 A 
ENDBRANCH   1  10
TORSDOF 1
ENDMDL
