MODEL 1
REMARK VINA RESULT:      -0.1      0.000      0.000
REMARK  5 active torsions:
REMARK  status: ('A' for Active; 'I' for Inactive)
REMARK    1  A    between atoms: N_5  and  C_1 
REMARK    2  A    between atoms: C_8  and  C_2 
REMARK       I    between atoms: C_7  and  N_5 
REMARK    3  A    between atoms: C_9  and  C_7 
REMARK    4  A    between atoms: O_16  and  C_8 
REMARK    5  A    between atoms: C_20  and  O_16 
ROOT
ATOM      1  C   UNL d   1     -41.851-123.344 -50.134  0.00  0.00     0.119 A 
ATOM      2  C   UNL d   1     -42.518-123.201 -49.658  0.00  0.00     0.088 A 
ATOM      3  S   UNL d   1     -41.182-123.364 -49.663  0.00  0.00    -0.068 SA
ATOM      4  C   UNL d   1     -42.245-123.130 -48.856  0.00  0.00     0.013 A 
ATOM      5  C   UNL d   1     -41.418-123.234 -48.880  0.00  0.00     0.031 A 
ATOM      6  C   UNL d   1     -42.454-123.002 -48.069  0.00  0.00     0.001 A 
ATOM      7  C   UNL d   1     -41.124-123.166 -48.083  0.00  0.00     0.006 A 
ATOM      8  C   UNL d   1     -41.774-123.026 -47.609  0.00  0.00     0.001 A 
ENDROOT
BRANCH   1   9
ATOM      9  N   UNL d   1     -41.847-123.455 -50.987  0.00  0.00    -0.201 NA
ATOM     10  C   UNL d   1     -41.483-122.882 -51.478  0.00  0.00     0.286 C 
ATOM     11  O   UNL d   1     -41.124-122.211 -51.183  0.00  0.00    -0.265 OA
BRANCH  10  12
ATOM     12  C   UNL d   1     -41.477-122.988 -52.314  0.00  0.00     0.087 A 
ATOM     13  S   UNL d   1     -41.458-122.321 -52.772  0.00  0.00    -0.082 SA
ATOM     14  C   UNL d   1     -41.455-122.578 -53.581  0.00  0.00     0.036 A 
ATOM     15  C   UNL d   1     -41.473-123.382 -53.582  0.00  0.00     0.008 A 
ATOM     16  C   UNL d   1     -41.486-123.638 -52.804  0.00  0.00     0.012 A 
ENDBRANCH  10  12
ENDBRANCH   1   9
BRANCH   2  17
ATOM     17  C   UNL d   1     -43.305-123.137 -49.901  0.00  0.00     0.302 C 
ATOM     18  O   UNL d   1     -43.779-123.817 -50.007  0.00  0.00    -0.259 OA
BRANCH  17  19
ATOM     19  O   UNL d   1     -43.637-122.376 -50.046  0.00  0.00    -0.271 OA
BRANCH  19  20
ATOM     20  C   UNL d   1     -44.406-122.336 -50.350  0.00  0.00     0.126 C 
ATOM     21  C   UNL d   1     -44.785-121.617 -50.409  0.00  0.00     0.029 C 
ENDBRANCH  19  20
ENDBRANCH  17  19
ENDBRANCH   2  17
TORSDOF 5
ENDMDL
MODEL 2
REMARK VINA RESULT:       1.4      1.316      3.992
REMARK  5 active torsions:
REMARK  status: ('A' for Active; 'I' for Inactive)
REMARK    1  A    between atoms: N_5  and  C_1 
REMARK    2  A    between atoms: C_8  and  C_2 
REMARK       I    between atoms: C_7  and  N_5 
REMARK    3  A    between atoms: C_9  and  C_7 
REMARK    4  A    between atoms: O_16  and  C_8 
REMARK    5  A    between atoms: C_20  and  O_16 
ROOT
ATOM      1  C   UNL d   1     -41.494-122.854 -51.474  0.00  0.00     0.119 A 
ATOM      2  C   UNL d   1     -41.459-122.161 -51.933  0.00  0.00     0.088 A 
ATOM      3  S   UNL d   1     -41.432-123.506 -51.966  0.00  0.00    -0.068 SA
ATOM      4  C   UNL d   1     -41.372-122.398 -52.744  0.00  0.00     0.013 A 
ATOM      5  C   UNL d   1     -41.357-123.232 -52.744  0.00  0.00     0.031 A 
ATOM      6  C   UNL d   1     -41.296-122.151 -53.526  0.00  0.00     0.001 A 
ATOM      7  C   UNL d   1     -41.270-123.491 -53.551  0.00  0.00     0.006 A 
ATOM      8  C   UNL d   1     -41.235-122.814 -54.007  0.00  0.00     0.001 A 
ENDROOT
BRANCH   1   9
ATOM      9  N   UNL d   1     -41.580-122.899 -50.620  0.00  0.00    -0.201 NA
ATOM     10  C   UNL d   1     -42.181-123.379 -50.288  0.00  0.00     0.286 C 
ATOM     11  O   UNL d   1     -42.698-123.816 -50.743  0.00  0.00    -0.265 OA
BRANCH  10  12
ATOM     12  C   UNL d   1     -42.268-123.424 -49.451  0.00  0.00     0.087 A 
ATOM     13  S   UNL d   1     -41.675-123.785 -49.035  0.00  0.00    -0.082 SA
ATOM     14  C   UNL d   1     -41.896-123.757 -48.217  0.00  0.00     0.036 A 
ATOM     15  C   UNL d   1     -42.608-123.385 -48.168  0.00  0.00     0.008 A 
ATOM     16  C   UNL d   1     -42.840-123.179 -48.926  0.00  0.00     0.012 A 
ENDBRANCH  10  12
ENDBRANCH   1   9
BRANCH   2  17
ATOM     17  C   UNL d   1     -41.500-121.380 -51.666  0.00  0.00     0.302 C 
ATOM     18  O   UNL d   1     -41.912-121.187 -50.964  0.00  0.00    -0.259 OA
BRANCH  17  19
ATOM     19  O   UNL d   1     -41.123-120.768 -52.104  0.00  0.00    -0.271 OA
BRANCH  19  20
ATOM     20  C   UNL d   1     -41.152-119.997 -51.805  0.00  0.00     0.126 C 
ATOM     21  C   UNL d   1     -41.124-119.360 -52.313  0.00  0.00     0.029 C 
ENDBRANCH  19  20
ENDBRANCH  17  19
ENDBRANCH   2  17
TORSDOF 5
ENDMDL
MODEL 3
REMARK VINA RESULT:       1.7      2.044      2.852
REMARK  5 active torsions:
REMARK  status: ('A' for Active; 'I' for Inactive)
REMARK    1  A    between atoms: N_5  and  C_1 
REMARK    2  A    between atoms: C_8  and  C_2 
REMARK       I    between atoms: C_7  and  N_5 
REMARK    3  A    between atoms: C_9  and  C_7 
REMARK    4  A    between atoms: O_16  and  C_8 
REMARK    5  A    between atoms: C_20  and  O_16 
ROOT
ATOM      1  C   UNL d   1     -41.430-122.392 -52.142  0.00  0.00     0.119 A 
ATOM      2  C   UNL d   1     -41.330-121.942 -51.450  0.00  0.00     0.088 A 
ATOM      3  S   UNL d   1     -41.436-123.188 -51.949  0.00  0.00    -0.068 SA
ATOM      4  C   UNL d   1     -41.273-122.486 -50.800  0.00  0.00     0.013 A 
ATOM      5  C   UNL d   1     -41.341-123.250 -51.128  0.00  0.00     0.031 A 
ATOM      6  C   UNL d   1     -41.179-122.576 -49.987  0.00  0.00     0.001 A 
ATOM      7  C   UNL d   1     -41.285-123.813 -50.491  0.00  0.00     0.006 A 
ATOM      8  C   UNL d   1     -41.187-123.378 -49.808  0.00  0.00     0.001 A 
ENDROOT
BRANCH   1   9
ATOM      9  N   UNL d   1     -41.515-122.087 -52.942  0.00  0.00    -0.201 NA
ATOM     10  C   UNL d   1     -41.615-122.620 -53.581  0.00  0.00     0.286 C 
ATOM     11  O   UNL d   1     -41.637-123.430 -53.480  0.00  0.00    -0.265 OA
BRANCH  10  12
ATOM     12  C   UNL d   1     -41.698-122.325 -54.365  0.00  0.00     0.087 A 
ATOM     13  S   UNL d   1     -42.443-122.312 -54.680  0.00  0.00    -0.082 SA
ATOM     14  C   UNL d   1     -42.375-121.996 -55.464  0.00  0.00     0.036 A 
ATOM     15  C   UNL d   1     -41.598-121.830 -55.593  0.00  0.00     0.008 A 
ATOM     16  C   UNL d   1     -41.179-122.032 -54.919  0.00  0.00     0.012 A 
ENDBRANCH  10  12
ENDBRANCH   1   9
BRANCH   2  17
ATOM     17  C   UNL d   1     -41.292-121.119 -51.387  0.00  0.00     0.302 C 
ATOM     18  O   UNL d   1     -41.415-120.737 -50.654  0.00  0.00    -0.259 OA
BRANCH  17  19
ATOM     19  O   UNL d   1     -41.128-120.655 -52.071  0.00  0.00    -0.271 OA
BRANCH  19  20
ATOM     20  C   UNL d   1     -41.127-119.831 -51.994  0.00  0.00     0.126 C 
ATOM     21  C   UNL d   1     -41.196-119.359 -52.655  0.00  0.00     0.029 C 
ENDBRANCH  19  20
ENDBRANCH  17  19
ENDBRANCH   2  17
TORSDOF 5
ENDMDL
MODEL 4
REMARK VINA RESULT:       2.2      1.654      4.417
REMARK  5 active torsions:
REMARK  status: ('A' for Active; 'I' for Inactive)
REMARK    1  A    between atoms: N_5  and  C_1 
REMARK    2  A    between atoms: C_8  and  C_2 
REMARK       I    between atoms: C_7  and  N_5 
REMARK    3  A    between atoms: C_9  and  C_7 
REMARK    4  A    between atoms: O_16  and  C_8 
REMARK    5  A    between atoms: C_20  and  O_16 
ROOT
ATOM      1  C   UNL d   1     -41.423-122.611 -52.846  0.00  0.00     0.119 A 
ATOM      2  C   UNL d   1     -41.558-122.044 -53.440  0.00  0.00     0.088 A 
ATOM      3  S   UNL d   1     -41.337-123.349 -53.191  0.00  0.00    -0.068 SA
ATOM      4  C   UNL d   1     -41.555-122.453 -54.185  0.00  0.00     0.013 A 
ATOM      5  C   UNL d   1     -41.417-123.257 -54.010  0.00  0.00     0.031 A 
ATOM      6  C   UNL d   1     -41.631-122.389 -55.003  0.00  0.00     0.001 A 
ATOM      7  C   UNL d   1     -41.410-123.686 -54.746  0.00  0.00     0.006 A 
ATOM      8  C   UNL d   1     -41.543-123.135 -55.334  0.00  0.00     0.001 A 
ENDROOT
BRANCH   1   9
ATOM      9  N   UNL d   1     -41.378-122.463 -52.000  0.00  0.00    -0.201 NA
ATOM     10  C   UNL d   1     -41.573-123.074 -51.461  0.00  0.00     0.286 C 
ATOM     11  O   UNL d   1     -41.808-123.817 -51.703  0.00  0.00    -0.265 OA
BRANCH  10  12
ATOM     12  C   UNL d   1     -41.529-122.933 -50.632  0.00  0.00     0.087 A 
ATOM     13  S   UNL d   1     -41.898-123.464 -50.145  0.00  0.00    -0.082 SA
ATOM     14  C   UNL d   1     -41.773-123.198 -49.350  0.00  0.00     0.036 A 
ATOM     15  C   UNL d   1     -41.337-122.523 -49.384  0.00  0.00     0.008 A 
ATOM     16  C   UNL d   1     -41.185-122.357 -50.171  0.00  0.00     0.012 A 
ENDBRANCH  10  12
ENDBRANCH   1   9
BRANCH   2  17
ATOM     17  C   UNL d   1     -41.676-121.232 -53.342  0.00  0.00     0.302 C 
ATOM     18  O   UNL d   1     -42.321-120.844 -53.705  0.00  0.00    -0.259 OA
BRANCH  17  19
ATOM     19  O   UNL d   1     -41.139-120.786 -52.870  0.00  0.00    -0.271 OA
BRANCH  19  20
ATOM     20  C   UNL d   1     -41.270-119.973 -52.791  0.00  0.00     0.126 C 
ATOM     21  C   UNL d   1     -41.126-119.603 -52.079  0.00  0.00     0.029 C 
ENDBRANCH  19  20
ENDBRANCH  17  19
ENDBRANCH   2  17
TORSDOF 5
ENDMDL
