MODEL 1
REMARK VINA RESULT:     103.5      0.000      0.000
REMARK  5 active torsions:
REMARK  status: ('A' for Active; 'I' for Inactive)
REMARK    1  A    between atoms: N_6  and  C_1 
REMARK    2  A    between atoms: C_8  and  C_2 
REMARK    3  A    between atoms: C_11  and  C_3 
REMARK       I    between atoms: C_7  and  N_6 
REMARK    4  A    between atoms: C_9  and  C_7 
REMARK    5  A    between atoms: C_20  and  C_11 
ROOT
ATOM      1  C   UNL d   1      60.657  47.770  50.772  0.00  0.00     0.119 A 
ATOM      2  C   UNL d   1      60.856  48.220  51.428  0.00  0.00     0.084 A 
ATOM      3  C   UNL d   1      60.182  49.003  50.576  0.00  0.00     0.031 A 
ATOM      4  S   UNL d   1      60.240  48.247  50.239  0.00  0.00    -0.068 SA
ATOM      5  C   UNL d   1      60.561  48.985  51.307  0.00  0.00     0.013 A 
ATOM      6  C   UNL d   1      60.630  49.626  51.825  0.00  0.00     0.001 C 
ENDROOT
BRANCH   1   7
ATOM      7  N   UNL d   1      60.846  46.960  50.658  0.00  0.00    -0.201 NA
ATOM      8  C   UNL d   1      61.356  46.733  50.039  0.00  0.00     0.280 C 
ATOM      9  O   UNL d   1      61.679  47.300  49.535  0.00  0.00    -0.265 OA
BRANCH   8  10
ATOM     10  C   UNL d   1      61.537  45.931  49.932  0.00  0.00     0.058 A 
ATOM     11  C   UNL d   1      61.510  45.411  50.576  0.00  0.00     0.005 A 
ATOM     12  C   UNL d   1      61.686  44.635  50.468  0.00  0.00     0.000 A 
ATOM     13  C   UNL d   1      61.649  44.136  51.137  0.00  0.00     0.000 A 
ATOM     14  C   UNL d   1      61.894  44.329  49.744  0.00  0.00     0.000 A 
ATOM     15  C   UNL d   1      61.823  43.345  51.056  0.00  0.00     0.000 A 
ATOM     16  C   UNL d   1      62.035  43.031  50.324  0.00  0.00     0.000 A 
ATOM     17  C   UNL d   1      62.069  43.534  49.666  0.00  0.00     0.000 A 
ATOM     18  C   UNL d   1      61.926  44.855  49.076  0.00  0.00     0.000 A 
ATOM     19  C   UNL d   1      61.745  45.653  49.185  0.00  0.00     0.005 A 
ENDBRANCH   8  10
ENDBRANCH   1   7
BRANCH   2  20
ATOM     20  C   UNL d   1      61.272  47.969  52.095  0.00  0.00     0.299 C 
ATOM     21  O   UNL d   1      62.012  48.399  52.326  0.00  0.00    -0.264 OA
ATOM     22  N   UNL d   1      61.029  47.375  52.513  0.00  0.00    -0.102 N 
ENDBRANCH   2  20
BRANCH   3  23
ATOM     23  C   UNL d   1      59.829  49.708  50.304  0.00  0.00     0.007 C 
BRANCH  23  24
ATOM     24  C   UNL d   1      59.029  49.705  50.073  0.00  0.00     0.003 A 
ATOM     25  C   UNL d   1      58.436  49.708  50.653  0.00  0.00     0.026 A 
ATOM     26  C   UNL d   1      57.643  49.705  50.434  0.00  0.00     0.119 A 
ATOM     27  O   UNL d   1      56.954  49.706  50.876  0.00  0.00    -0.300 OA
ATOM     28  C   UNL d   1      57.435  49.699  49.637  0.00  0.00     0.119 A 
ATOM     29  C   UNL d   1      56.320  49.702  50.357  0.00  0.00     0.304 A 
ATOM     30  O   UNL d   1      56.619  49.697  49.591  0.00  0.00    -0.300 OA
ATOM     31  C   UNL d   1      58.020  49.696  49.059  0.00  0.00     0.026 A 
ATOM     32  C   UNL d   1      58.821  49.699  49.276  0.00  0.00     0.002 A 
ENDBRANCH  23  24
ENDBRANCH   3  23
TORSDOF 5
ENDMDL
