MODEL 1
REMARK VINA RESULT:      -2.3      0.000      0.000
REMARK  4 active torsions:
REMARK  status: ('A' for Active; 'I' for Inactive)
REMARK    1  A    between atoms: O_8  and  C_1 
REMARK    2  A    between atoms: C_9  and  C_5 
REMARK    3  A    between atoms: C_11  and  O_8 
REMARK    4  A    between atoms: N_12  and  C_9 
ROOT
ATOM      1  C   UNL d   1      33.118  18.573 -23.711  0.00  0.00     0.161 A 
ATOM      2  C   UNL d   1      33.164  20.081 -23.008  0.00  0.00     0.108 A 
ATOM      3  C   UNL d   1      33.111  20.007 -23.842  0.00  0.00     0.064 A 
ATOM      4  C   UNL d   1      33.088  19.254 -24.190  0.00  0.00     0.222 A 
ATOM      5  C   UNL d   1      33.187  20.821 -22.663  0.00  0.00     0.079 A 
ATOM      6  O   UNL d   1      33.194  19.399 -22.533  0.00  0.00    -0.305 OA
ATOM      7  C   UNL d   1      33.171  18.646 -22.885  0.00  0.00     0.126 A 
ATOM      8  C   UNL d   1      33.082  20.691 -24.300  0.00  0.00     0.009 A 
ATOM      9  C   UNL d   1      33.158  21.499 -23.125  0.00  0.00     0.199 A 
ATOM     10  O   UNL d   1      33.036  19.182 -25.012  0.00  0.00    -0.284 OA
ATOM     11  C   UNL d   1      33.105  21.432 -23.947  0.00  0.00     0.042 A 
ATOM     12  O   UNL d   1      33.181  22.245 -22.772  0.00  0.00    -0.286 OA
ATOM     13  C   UNL d   1      33.201  17.969 -22.408  0.00  0.00     0.029 C 
ENDROOT
BRANCH   1  14
ATOM     14  O   UNL d   1      33.095  17.828 -24.064  0.00  0.00    -0.301 OA
BRANCH  14  15
ATOM     15  C   UNL d   1      32.375  17.445 -24.195  0.00  0.00     0.106 A 
ATOM     16  C   UNL d   1      32.361  16.716 -24.567  0.00  0.00     0.057 A 
ATOM     17 BR   UNL d   1      33.065  16.360 -24.814  0.00  0.00    -0.047 Br
ATOM     18  C   UNL d   1      31.638  16.336 -24.696  0.00  0.00     0.009 A 
ATOM     19  C   UNL d   1      30.930  16.690 -24.450  0.00  0.00     0.001 A 
ATOM     20  C   UNL d   1      30.953  17.428 -24.074  0.00  0.00     0.002 A 
ATOM     21  C   UNL d   1      31.674  17.803 -23.948  0.00  0.00     0.025 A 
ENDBRANCH  14  15
ENDBRANCH   1  14
BRANCH   5  22
ATOM     22  C   UNL d   1      33.239  20.888 -21.853  0.00  0.00     0.085 C 
BRANCH  22  23
ATOM     23  N   UNL d   1      32.733  21.305 -21.368  0.00  0.00    -0.302 N 
ATOM     24  C   UNL d   1      32.805  22.089 -21.160  0.00  0.00     0.080 A 
ATOM     25  C   UNL d   1      32.189  22.273 -20.677  0.00  0.00     0.021 A 
ATOM     26  C   UNL d   1      31.739  21.623 -20.581  0.00  0.00     0.021 A 
ATOM     27  C   UNL d   1      32.076  21.011 -21.013  0.00  0.00     0.080 A 
ENDBRANCH  22  23
ENDBRANCH   5  22
TORSDOF 4
ENDMDL
MODEL 2
REMARK VINA RESULT:      -0.9      2.504      4.304
REMARK  4 active torsions:
REMARK  status: ('A' for Active; 'I' for Inactive)
REMARK    1  A    between atoms: O_8  and  C_1 
REMARK    2  A    between atoms: C_9  and  C_5 
REMARK    3  A    between atoms: C_11  and  O_8 
REMARK    4  A    between atoms: N_12  and  C_9 
ROOT
ATOM      1  C   UNL d   1      29.528  16.774 -24.663  0.00  0.00     0.161 A 
ATOM      2  C   UNL d   1      31.079  17.372 -24.753  0.00  0.00     0.108 A 
ATOM      3  C   UNL d   1      30.935  16.554 -24.877  0.00  0.00     0.064 A 
ATOM      4  C   UNL d   1      30.161  16.259 -24.831  0.00  0.00     0.222 A 
ATOM      5  C   UNL d   1      31.840  17.666 -24.797  0.00  0.00     0.079 A 
ATOM      6  O   UNL d   1      30.444  17.883 -24.586  0.00  0.00    -0.305 OA
ATOM      7  C   UNL d   1      29.669  17.584 -24.541  0.00  0.00     0.126 A 
ATOM      8  C   UNL d   1      31.572  16.060 -25.042  0.00  0.00     0.009 A 
ATOM      9  C   UNL d   1      32.471  17.167 -24.962  0.00  0.00     0.199 A 
ATOM     10  O   UNL d   1      30.020  15.454 -24.953  0.00  0.00    -0.284 OA
ATOM     11  C   UNL d   1      32.335  16.362 -25.085  0.00  0.00     0.042 A 
ATOM     12  O   UNL d   1      33.238  17.468 -25.006  0.00  0.00    -0.286 OA
ATOM     13  C   UNL d   1      29.040  18.097 -24.374  0.00  0.00     0.029 C 
ENDROOT
BRANCH   1  14
ATOM     14  O   UNL d   1      28.761  16.473 -24.620  0.00  0.00    -0.301 OA
BRANCH  14  15
ATOM     15  C   UNL d   1      28.479  16.138 -23.920  0.00  0.00     0.106 A 
ATOM     16  C   UNL d   1      27.734  15.796 -23.901  0.00  0.00     0.057 A 
ATOM     17 BR   UNL d   1      27.263  15.785 -24.580  0.00  0.00    -0.047 Br
ATOM     18  C   UNL d   1      27.455  15.462 -23.199  0.00  0.00     0.009 A 
ATOM     19  C   UNL d   1      27.925  15.472 -22.515  0.00  0.00     0.001 A 
ATOM     20  C   UNL d   1      28.676  15.819 -22.543  0.00  0.00     0.002 A 
ATOM     21  C   UNL d   1      28.950  16.151 -23.243  0.00  0.00     0.025 A 
ENDBRANCH  14  15
ENDBRANCH   1  14
BRANCH   5  22
ATOM     22  C   UNL d   1      31.974  18.459 -24.676  0.00  0.00     0.085 C 
BRANCH  22  23
ATOM     23  N   UNL d   1      32.403  18.790 -24.067  0.00  0.00    -0.302 N 
ATOM     24  C   UNL d   1      32.391  18.554 -23.288  0.00  0.00     0.080 A 
ATOM     25  C   UNL d   1      32.894  19.029 -22.878  0.00  0.00     0.021 A 
ATOM     26  C   UNL d   1      33.216  19.554 -23.385  0.00  0.00     0.021 A 
ATOM     27  C   UNL d   1      32.911  19.408 -24.133  0.00  0.00     0.080 A 
ENDBRANCH  22  23
ENDBRANCH   5  22
TORSDOF 4
ENDMDL
