MODEL 1
REMARK VINA RESULT:      70.1      0.000      0.000
REMARK  3 active torsions:
REMARK  status: ('A' for Active; 'I' for Inactive)
REMARK    1  A    between atoms: C_9  and  C_1 
REMARK    2  A    between atoms: C_11  and  N_5 
REMARK    3  A    between atoms: N_8  and  C_9 
ROOT
ATOM      1  N   UNL d   1     -55.466-102.316 -40.330  0.00  0.00    -0.301 N 
ATOM      2  N   UNL d   1     -55.059-102.067 -41.916  0.00  0.00    -0.300 N 
ATOM      3  C   UNL d   1     -54.920-102.818 -40.705  0.00  0.00     0.100 A 
ATOM      4  C   UNL d   1     -55.807-101.690 -40.753  0.00  0.00     0.100 A 
ATOM      5  C   UNL d   1     -54.713-102.694 -41.506  0.00  0.00     0.100 A 
ATOM      6  C   UNL d   1     -55.600-101.575 -41.534  0.00  0.00     0.100 A 
ENDROOT
BRANCH   2   7
ATOM      7  C   UNL d   1     -54.860-101.937 -42.709  0.00  0.00     0.084 C 
BRANCH   7   8
ATOM      8  C   UNL d   1     -54.902-101.172 -43.003  0.00  0.00     0.059 A 
ATOM      9  C   UNL d   1     -55.064-101.066 -43.808  0.00  0.00     0.214 A 
ATOM     10  C   UNL d   1     -55.108-100.292 -44.115  0.00  0.00     0.121 A 
ATOM     11  O   UNL d   1     -55.180-101.706 -44.303  0.00  0.00    -0.285 OA
ATOM     12  N   UNL d   1     -55.269-100.186 -44.920  0.00  0.00    -0.241 NA
ATOM     13  C   UNL d   1     -54.992 -99.641 -43.621  0.00  0.00     0.032 A 
ATOM     14  C   UNL d   1     -55.313 -99.414 -45.223  0.00  0.00     0.099 A 
ATOM     15  C   UNL d   1     -55.197 -98.763 -44.729  0.00  0.00     0.021 A 
ATOM     16  C   UNL d   1     -55.037 -98.884 -43.932  0.00  0.00     0.004 A 
ATOM     17  C   UNL d   1     -54.832 -99.760 -42.827  0.00  0.00     0.059 A 
ATOM     18  C   UNL d   1     -54.786-100.522 -42.509  0.00  0.00     0.016 A 
ATOM     19 CL   UNL d   1     -54.715 -99.103 -42.328  0.00  0.00    -0.082 Cl
ENDBRANCH   7   8
ENDBRANCH   2   7
BRANCH   1  20
ATOM     20  C   UNL d   1     -55.664-102.443 -39.549  0.00  0.00     0.064 A 
ATOM     21  C   UNL d   1     -56.424-102.261 -39.287  0.00  0.00     0.020 A 
ATOM     22  C   UNL d   1     -56.632-102.387 -38.494  0.00  0.00     0.031 A 
ATOM     23  C   UNL d   1     -56.071-102.698 -37.962  0.00  0.00     0.140 A 
ATOM     24  C   UNL d   1     -55.312-102.877 -38.235  0.00  0.00     0.031 A 
ATOM     25  F   UNL d   1     -56.281-102.821 -37.180  0.00  0.00    -0.204 F 
ATOM     26  C   UNL d   1     -55.111-102.749 -39.026  0.00  0.00     0.020 A 
ENDBRANCH   1  20
TORSDOF 3
ENDMDL
