MODEL 1
REMARK VINA RESULT:      28.0      0.000      0.000
REMARK  6 active torsions:
REMARK  status: ('A' for Active; 'I' for Inactive)
REMARK    1  A    between atoms: N_2  and  S_1 
REMARK    2  A    between atoms: C_3  and  S_1 
REMARK    3  A    between atoms: C_7  and  N_2 
REMARK    4  A    between atoms: C_10  and  C_7 
REMARK    5  A    between atoms: O_14  and  C_11 
REMARK    6  A    between atoms: C_17  and  O_14 
ROOT
ATOM      1  S   UNL d   1     -54.815-102.179 -41.479  0.00  0.00     0.285 S 
ATOM      2  O   UNL d   1     -54.894-101.479 -41.050  0.00  0.00    -0.198 OA
ATOM      3  O   UNL d   1     -54.735-102.879 -41.908  0.00  0.00    -0.198 OA
ENDROOT
BRANCH   1   4
ATOM      4  N   UNL d   1     -54.840-102.612 -40.777  0.00  0.00    -0.155 NA
BRANCH   4   5
ATOM      5  C   UNL d   1     -54.711-102.237 -40.055  0.00  0.00     0.131 C 
BRANCH   5   6
ATOM      6  C   UNL d   1     -55.154-102.451 -39.392  0.00  0.00     0.101 A 
ATOM      7  N   UNL d   1     -55.953-102.636 -39.473  0.00  0.00    -0.242 NA
ATOM      8  C   UNL d   1     -56.395-102.850 -38.810  0.00  0.00     0.099 A 
ATOM      9  C   UNL d   1     -56.039-102.880 -38.068  0.00  0.00     0.021 A 
ATOM     10  C   UNL d   1     -55.235-102.694 -37.984  0.00  0.00     0.003 A 
ATOM     11  C   UNL d   1     -54.792-102.480 -38.647  0.00  0.00     0.021 A 
ENDBRANCH   5   6
ENDBRANCH   4   5
ENDBRANCH   1   4
BRANCH   1  12
ATOM     12  C   UNL d   1     -54.789-101.746 -42.180  0.00  0.00     0.105 A 
ATOM     13  C   UNL d   1     -54.801-102.135 -42.905  0.00  0.00     0.015 A 
ATOM     14  C   UNL d   1     -54.775-101.702 -43.607  0.00  0.00     0.025 A 
ATOM     15  C   UNL d   1     -54.737-100.880 -43.584  0.00  0.00     0.100 A 
ATOM     16  C   UNL d   1     -54.724-100.491 -42.858  0.00  0.00     0.025 A 
ATOM     17  C   UNL d   1     -54.751-100.928 -42.149  0.00  0.00     0.015 A 
BRANCH  15  18
ATOM     18  O   UNL d   1     -54.711-100.447 -44.286  0.00  0.00    -0.305 OA
BRANCH  18  19
ATOM     19  C   UNL d   1     -55.009 -99.681 -44.308  0.00  0.00     0.123 C 
ATOM     20  C   UNL d   1     -54.807 -99.177 -44.929  0.00  0.00     0.029 C 
ENDBRANCH  18  19
ENDBRANCH  15  18
ENDBRANCH   1  12
TORSDOF 6
ENDMDL
