MODEL 1
REMARK VINA RESULT:      63.0      0.000      0.000
REMARK  2 active torsions:
REMARK  status: ('A' for Active; 'I' for Inactive)
REMARK    1  A    between atoms: N_2  and  C_9 
REMARK    2  A    between atoms: C_11  and  C_7 
ROOT
ATOM      1  C   UNL d   1     -57.613 -98.825 -44.484  0.00  0.00     0.110 A 
ATOM      2  C   UNL d   1     -58.420 -98.787 -43.424  0.00  0.00     0.332 A 
ATOM      3  C   UNL d   1     -57.147 -98.797 -43.811  0.00  0.00     0.060 A 
ATOM      4  S   UNL d   1     -57.639 -98.774 -43.159  0.00  0.00    -0.018 SA
ATOM      5  O   UNL d   1     -58.396 -98.819 -44.252  0.00  0.00    -0.268 OA
ATOM      6  C   UNL d   1     -57.264 -98.853 -45.229  0.00  0.00     0.027 A 
ATOM      7  C   UNL d   1     -56.311 -98.796 -43.888  0.00  0.00     0.051 A 
ATOM      8  C   UNL d   1     -56.444 -98.852 -45.309  0.00  0.00     0.044 A 
ATOM      9  O   UNL d   1     -59.099 -98.772 -42.954  0.00  0.00    -0.251 OA
ATOM     10  C   UNL d   1     -55.972 -98.824 -44.641  0.00  0.00     0.196 A 
ATOM     11  O   UNL d   1     -55.140 -98.824 -44.714  0.00  0.00    -0.286 OA
ENDROOT
BRANCH   6  12
ATOM     12  C   UNL d   1     -57.737 -98.881 -45.905  0.00  0.00     0.002 A 
ATOM     13  C   UNL d   1     -58.562 -98.886 -45.827  0.00  0.00     0.002 A 
ATOM     14  C   UNL d   1     -59.041 -98.914 -46.504  0.00  0.00     0.024 A 
ATOM     15  C   UNL d   1     -58.691 -98.938 -47.255  0.00  0.00     0.127 A 
ATOM     16  C   UNL d   1     -57.872 -98.933 -47.329  0.00  0.00     0.024 A 
ATOM     17  C   UNL d   1     -57.393 -98.905 -46.652  0.00  0.00     0.002 A 
BRANCH  15  18
ATOM     18  N   UNL d   1     -59.167 -98.967 -47.939  0.00  0.00    -0.114 N 
ATOM     19  O   UNL d   1     -58.848 -98.755 -48.668  0.00  0.00    -0.532 OA
ATOM     20  O   UNL d   1     -59.952 -99.205 -47.884  0.00  0.00    -0.532 OA
ENDBRANCH  15  18
ENDBRANCH   6  12
TORSDOF 2
ENDMDL
