MODEL 1
REMARK VINA RESULT:      -2.6      0.000      0.000
REMARK  3 active torsions:
REMARK  status: ('A' for Active; 'I' for Inactive)
REMARK    1  A    between atoms: N_5  and  C_1 
REMARK    2  A    between atoms: C_10  and  C_2 
REMARK       I    between atoms: C_8  and  N_5 
REMARK    3  A    between atoms: C_7  and  C_8 
ROOT
ATOM      1  C   UNL d   1      32.105  17.477 -23.977  0.00  0.00     0.119 A 
ATOM      2  C   UNL d   1      31.386  17.181 -24.279  0.00  0.00     0.084 A 
ATOM      3  S   UNL d   1      32.654  16.865 -23.992  0.00  0.00    -0.068 SA
ATOM      4  C   UNL d   1      31.499  16.387 -24.478  0.00  0.00     0.013 A 
ATOM      5  C   UNL d   1      32.289  16.191 -24.299  0.00  0.00     0.031 A 
ATOM      6  C   UNL d   1      30.937  15.876 -24.796  0.00  0.00     0.001 C 
ATOM      7  C   UNL d   1      32.637  15.453 -24.411  0.00  0.00     0.007 C 
ENDROOT
BRANCH   1   8
ATOM      8  N   UNL d   1      32.237  18.246 -23.712  0.00  0.00    -0.201 NA
ATOM      9  C   UNL d   1      32.806  18.384 -23.127  0.00  0.00     0.286 C 
ATOM     10  O   UNL d   1      33.239  17.772 -22.807  0.00  0.00    -0.265 OA
BRANCH   9  11
ATOM     11  C   UNL d   1      32.938  19.158 -22.860  0.00  0.00     0.088 A 
ATOM     12  S   UNL d   1      32.856  19.435 -22.078  0.00  0.00    -0.075 SA
ATOM     13  C   UNL d   1      33.045  20.246 -22.066  0.00  0.00     0.064 A 
ATOM     14 BR   UNL d   1      33.039  20.753 -21.400  0.00  0.00    -0.042 Br
ATOM     15  C   UNL d   1      33.241  20.457 -22.840  0.00  0.00     0.014 A 
ATOM     16  C   UNL d   1      33.176  19.795 -23.322  0.00  0.00     0.012 A 
ENDBRANCH   9  11
ENDBRANCH   1   8
BRANCH   2  17
ATOM     17  C   UNL d   1      30.685  17.609 -24.363  0.00  0.00     0.299 C 
ATOM     18  O   UNL d   1      30.578  18.107 -25.023  0.00  0.00    -0.264 OA
ATOM     19  N   UNL d   1      30.080  17.548 -23.794  0.00  0.00    -0.102 N 
ENDBRANCH   2  17
TORSDOF 3
ENDMDL
MODEL 2
REMARK VINA RESULT:      -2.1      2.700      5.050
REMARK  3 active torsions:
REMARK  status: ('A' for Active; 'I' for Inactive)
REMARK    1  A    between atoms: N_5  and  C_1 
REMARK    2  A    between atoms: C_10  and  C_2 
REMARK       I    between atoms: C_8  and  N_5 
REMARK    3  A    between atoms: C_7  and  C_8 
ROOT
ATOM      1  C   UNL d   1      33.022  21.504 -21.673  0.00  0.00     0.119 A 
ATOM      2  C   UNL d   1      32.841  22.318 -21.673  0.00  0.00     0.084 A 
ATOM      3  S   UNL d   1      33.179  21.282 -20.898  0.00  0.00    -0.068 SA
ATOM      4  C   UNL d   1      32.888  22.591 -20.894  0.00  0.00     0.013 A 
ATOM      5  C   UNL d   1      33.099  21.945 -20.412  0.00  0.00     0.031 A 
ATOM      6  C   UNL d   1      32.754  23.361 -20.635  0.00  0.00     0.001 C 
ATOM      7  C   UNL d   1      33.207  21.971 -19.596  0.00  0.00     0.007 C 
ENDROOT
BRANCH   1   8
ATOM      8  N   UNL d   1      33.038  21.014 -22.336  0.00  0.00    -0.201 NA
ATOM      9  C   UNL d   1      33.064  20.193 -22.235  0.00  0.00     0.286 C 
ATOM     10  O   UNL d   1      33.073  19.859 -21.492  0.00  0.00    -0.265 OA
BRANCH   9  11
ATOM     11  C   UNL d   1      33.081  19.700 -22.902  0.00  0.00     0.088 A 
ATOM     12  S   UNL d   1      32.970  18.874 -22.912  0.00  0.00    -0.075 SA
ATOM     13  C   UNL d   1      33.033  18.611 -23.700  0.00  0.00     0.064 A 
ATOM     14 BR   UNL d   1      32.960  17.822 -23.972  0.00  0.00    -0.042 Br
ATOM     15  C   UNL d   1      33.182  19.278 -24.163  0.00  0.00     0.014 A 
ATOM     16  C   UNL d   1      33.211  19.940 -23.678  0.00  0.00     0.012 A 
ENDBRANCH   9  11
ENDBRANCH   1   8
BRANCH   2  17
ATOM     17  C   UNL d   1      32.648  22.771 -22.336  0.00  0.00     0.299 C 
ATOM     18  O   UNL d   1      31.852  22.970 -22.487  0.00  0.00    -0.264 OA
ATOM     19  N   UNL d   1      33.241  23.031 -22.858  0.00  0.00    -0.102 N 
ENDBRANCH   2  17
TORSDOF 3
ENDMDL
MODEL 3
REMARK VINA RESULT:      -1.5      4.728      6.078
REMARK  3 active torsions:
REMARK  status: ('A' for Active; 'I' for Inactive)
REMARK    1  A    between atoms: N_5  and  C_1 
REMARK    2  A    between atoms: C_10  and  C_2 
REMARK       I    between atoms: C_8  and  N_5 
REMARK    3  A    between atoms: C_7  and  C_8 
ROOT
ATOM      1  C   UNL d   1      32.756  22.087 -20.249  0.00  0.00     0.119 A 
ATOM      2  C   UNL d   1      32.442  22.336 -20.981  0.00  0.00     0.084 A 
ATOM      3  S   UNL d   1      33.003  21.308 -20.334  0.00  0.00    -0.068 SA
ATOM      4  C   UNL d   1      32.498  21.704 -21.512  0.00  0.00     0.013 A 
ATOM      5  C   UNL d   1      32.847  21.065 -21.109  0.00  0.00     0.031 A 
ATOM      6  C   UNL d   1      32.254  21.701 -22.298  0.00  0.00     0.001 C 
ATOM      7  C   UNL d   1      33.007  20.324 -21.431  0.00  0.00     0.007 C 
ENDROOT
BRANCH   1   8
ATOM      8  N   UNL d   1      32.808  22.545 -19.566  0.00  0.00    -0.201 NA
ATOM      9  C   UNL d   1      33.050  22.194 -18.857  0.00  0.00     0.286 C 
ATOM     10  O   UNL d   1      33.239  21.402 -18.821  0.00  0.00    -0.265 OA
BRANCH   9  11
ATOM     11  C   UNL d   1      33.102  22.655 -18.170  0.00  0.00     0.088 A 
ATOM     12  S   UNL d   1      33.056  22.383 -17.384  0.00  0.00    -0.075 SA
ATOM     13  C   UNL d   1      33.136  23.037 -16.874  0.00  0.00     0.064 A 
ATOM     14 BR   UNL d   1      33.123  23.024 -16.037  0.00  0.00    -0.042 Br
ATOM     15  C   UNL d   1      33.230  23.702 -17.353  0.00  0.00     0.014 A 
ATOM     16  C   UNL d   1      33.210  23.470 -18.141  0.00  0.00     0.012 A 
ENDBRANCH   9  11
ENDBRANCH   1   8
BRANCH   2  17
ATOM     17  C   UNL d   1      32.130  23.082 -21.144  0.00  0.00     0.299 C 
ATOM     18  O   UNL d   1      31.332  23.249 -20.963  0.00  0.00    -0.264 OA
ATOM     19  N   UNL d   1      32.602  23.673 -21.490  0.00  0.00    -0.102 N 
ENDBRANCH   2  17
TORSDOF 3
ENDMDL
MODEL 4
REMARK VINA RESULT:      -1.4      2.738      4.151
REMARK  3 active torsions:
REMARK  status: ('A' for Active; 'I' for Inactive)
REMARK    1  A    between atoms: N_5  and  C_1 
REMARK    2  A    between atoms: C_10  and  C_2 
REMARK       I    between atoms: C_8  and  N_5 
REMARK    3  A    between atoms: C_7  and  C_8 
ROOT
ATOM      1  C   UNL d   1      31.271  16.389 -23.815  0.00  0.00     0.119 A 
ATOM      2  C   UNL d   1      31.749  17.056 -23.965  0.00  0.00     0.084 A 
ATOM      3  S   UNL d   1      31.737  15.825 -23.443  0.00  0.00    -0.068 SA
ATOM      4  C   UNL d   1      32.509  16.895 -23.683  0.00  0.00     0.013 A 
ATOM      5  C   UNL d   1      32.502  16.129 -23.358  0.00  0.00     0.031 A 
ATOM      6  C   UNL d   1      33.160  17.398 -23.714  0.00  0.00     0.001 C 
ATOM      7  C   UNL d   1      33.145  15.747 -23.014  0.00  0.00     0.007 C 
ENDROOT
BRANCH   1   8
ATOM      8  N   UNL d   1      30.473  16.315 -24.008  0.00  0.00    -0.201 NA
ATOM      9  C   UNL d   1      29.981  15.845 -23.536  0.00  0.00     0.286 C 
ATOM     10  O   UNL d   1      30.272  15.453 -22.883  0.00  0.00    -0.265 OA
BRANCH   9  11
ATOM     11  C   UNL d   1      29.179  15.770 -23.730  0.00  0.00     0.088 A 
ATOM     12  S   UNL d   1      28.551  15.625 -23.201  0.00  0.00    -0.075 SA
ATOM     13  C   UNL d   1      27.843  15.593 -23.638  0.00  0.00     0.064 A 
ATOM     14 BR   UNL d   1      27.073  15.459 -23.335  0.00  0.00    -0.042 Br
ATOM     15  C   UNL d   1      28.044  15.718 -24.428  0.00  0.00     0.014 A 
ATOM     16  C   UNL d   1      28.856  15.825 -24.484  0.00  0.00     0.012 A 
ENDBRANCH   9  11
ENDBRANCH   1   8
BRANCH   2  17
ATOM     17  C   UNL d   1      31.504  17.754 -24.332  0.00  0.00     0.299 C 
ATOM     18  O   UNL d   1      30.986  18.273 -23.934  0.00  0.00    -0.264 OA
ATOM     19  N   UNL d   1      31.768  17.946 -25.097  0.00  0.00    -0.102 N 
ENDBRANCH   2  17
TORSDOF 3
ENDMDL
MODEL 5
REMARK VINA RESULT:      -1.2      2.027      4.318
REMARK  3 active torsions:
REMARK  status: ('A' for Active; 'I' for Inactive)
REMARK    1  A    between atoms: N_5  and  C_1 
REMARK    2  A    between atoms: C_10  and  C_2 
REMARK       I    between atoms: C_8  and  N_5 
REMARK    3  A    between atoms: C_7  and  C_8 
ROOT
ATOM      1  C   UNL d   1      32.872  20.274 -22.776  0.00  0.00     0.119 A 
ATOM      2  C   UNL d   1      32.793  20.744 -22.091  0.00  0.00     0.084 A 
ATOM      3  S   UNL d   1      33.048  20.774 -23.404  0.00  0.00    -0.068 SA
ATOM      4  C   UNL d   1      32.922  21.532 -22.305  0.00  0.00     0.013 A 
ATOM      5  C   UNL d   1      33.081  21.550 -23.122  0.00  0.00     0.031 A 
ATOM      6  C   UNL d   1      32.899  22.186 -21.805  0.00  0.00     0.001 C 
ATOM      7  C   UNL d   1      33.241  22.226 -23.565  0.00  0.00     0.007 C 
ENDROOT
BRANCH   1   8
ATOM      8  N   UNL d   1      32.787  19.455 -22.811  0.00  0.00    -0.201 NA
ATOM      9  C   UNL d   1      32.922  19.062 -23.527  0.00  0.00     0.286 C 
ATOM     10  O   UNL d   1      33.137  19.470 -24.199  0.00  0.00    -0.265 OA
BRANCH   9  11
ATOM     11  C   UNL d   1      32.837  18.238 -23.562  0.00  0.00     0.088 A 
ATOM     12  S   UNL d   1      32.352  17.810 -24.089  0.00  0.00    -0.075 SA
ATOM     13  C   UNL d   1      32.440  16.998 -23.925  0.00  0.00     0.064 A 
ATOM     14 BR   UNL d   1      32.059  16.364 -24.317  0.00  0.00    -0.042 Br
ATOM     15  C   UNL d   1      32.976  16.937 -23.301  0.00  0.00     0.014 A 
ATOM     16  C   UNL d   1      33.218  17.691 -23.080  0.00  0.00     0.012 A 
ENDBRANCH   9  11
ENDBRANCH   1   8
BRANCH   2  17
ATOM     17  C   UNL d   1      32.617  20.468 -21.334  0.00  0.00     0.299 C 
ATOM     18  O   UNL d   1      33.214  20.115 -20.870  0.00  0.00    -0.264 OA
ATOM     19  N   UNL d   1      31.848  20.538 -21.025  0.00  0.00    -0.102 N 
ENDBRANCH   2  17
TORSDOF 3
ENDMDL
MODEL 6
REMARK VINA RESULT:      -0.6      2.152      2.938
REMARK  3 active torsions:
REMARK  status: ('A' for Active; 'I' for Inactive)
REMARK    1  A    between atoms: N_5  and  C_1 
REMARK    2  A    between atoms: C_10  and  C_2 
REMARK       I    between atoms: C_8  and  N_5 
REMARK    3  A    between atoms: C_7  and  C_8 
ROOT
ATOM      1  C   UNL d   1      30.132  16.965 -24.195  0.00  0.00     0.119 A 
ATOM      2  C   UNL d   1      29.941  16.295 -23.736  0.00  0.00     0.084 A 
ATOM      3  S   UNL d   1      29.434  17.258 -24.513  0.00  0.00    -0.068 SA
ATOM      4  C   UNL d   1      29.124  16.182 -23.776  0.00  0.00     0.013 A 
ATOM      5  C   UNL d   1      28.808  16.782 -24.259  0.00  0.00     0.031 A 
ATOM      6  C   UNL d   1      28.692  15.586 -23.406  0.00  0.00     0.001 C 
ATOM      7  C   UNL d   1      28.012  16.877 -24.447  0.00  0.00     0.007 C 
ENDROOT
BRANCH   1   8
ATOM      8  N   UNL d   1      30.888  17.273 -24.307  0.00  0.00    -0.201 NA
ATOM      9  C   UNL d   1      30.985  17.964 -24.752  0.00  0.00     0.286 C 
ATOM     10  O   UNL d   1      30.345  18.346 -25.083  0.00  0.00    -0.265 OA
BRANCH   9  11
ATOM     11  C   UNL d   1      31.746  18.275 -24.864  0.00  0.00     0.088 A 
ATOM     12  S   UNL d   1      31.964  19.078 -24.834  0.00  0.00    -0.075 SA
ATOM     13  C   UNL d   1      32.782  19.133 -24.980  0.00  0.00     0.064 A 
ATOM     14 BR   UNL d   1      33.241  19.833 -25.003  0.00  0.00    -0.042 Br
ATOM     15  C   UNL d   1      33.056  18.364 -25.096  0.00  0.00     0.014 A 
ATOM     16  C   UNL d   1      32.426  17.842 -25.026  0.00  0.00     0.012 A 
ENDBRANCH   9  11
ENDBRANCH   1   8
BRANCH   2  17
ATOM     17  C   UNL d   1      30.477  15.828 -23.316  0.00  0.00     0.299 C 
ATOM     18  O   UNL d   1      31.110  15.459 -23.716  0.00  0.00    -0.264 OA
ATOM     19  N   UNL d   1      30.394  15.720 -22.496  0.00  0.00    -0.102 N 
ENDBRANCH   2  17
TORSDOF 3
ENDMDL
MODEL 7
REMARK VINA RESULT:      -0.3      3.009      3.937
REMARK  3 active torsions:
REMARK  status: ('A' for Active; 'I' for Inactive)
REMARK    1  A    between atoms: N_5  and  C_1 
REMARK    2  A    between atoms: C_10  and  C_2 
REMARK       I    between atoms: C_8  and  N_5 
REMARK    3  A    between atoms: C_7  and  C_8 
ROOT
ATOM      1  C   UNL d   1      33.124  20.669 -22.300  0.00  0.00     0.119 A 
ATOM      2  C   UNL d   1      33.163  20.577 -23.129  0.00  0.00     0.084 A 
ATOM      3  S   UNL d   1      33.134  19.919 -21.964  0.00  0.00    -0.068 SA
ATOM      4  C   UNL d   1      33.196  19.769 -23.296  0.00  0.00     0.013 A 
ATOM      5  C   UNL d   1      33.178  19.359 -22.571  0.00  0.00     0.031 A 
ATOM      6  C   UNL d   1      33.239  19.423 -24.042  0.00  0.00     0.001 C 
ATOM      7  C   UNL d   1      33.200  18.540 -22.481  0.00  0.00     0.007 C 
ENDROOT
BRANCH   1   8
ATOM      8  N   UNL d   1      33.084  21.385 -21.895  0.00  0.00    -0.201 NA
ATOM      9  C   UNL d   1      32.679  21.425 -21.175  0.00  0.00     0.286 C 
ATOM     10  O   UNL d   1      32.318  20.767 -20.857  0.00  0.00    -0.265 OA
BRANCH   9  11
ATOM     11  C   UNL d   1      32.638  22.146 -20.768  0.00  0.00     0.088 A 
ATOM     12  S   UNL d   1      33.112  22.380 -20.123  0.00  0.00    -0.075 SA
ATOM     13  C   UNL d   1      32.879  23.146 -19.891  0.00  0.00     0.064 A 
ATOM     14 BR   UNL d   1      33.202  23.600 -19.267  0.00  0.00    -0.042 Br
ATOM     15  C   UNL d   1      32.266  23.372 -20.396  0.00  0.00     0.014 A 
ATOM     16  C   UNL d   1      32.120  22.764 -20.929  0.00  0.00     0.012 A 
ENDBRANCH   9  11
ENDBRANCH   1   8
BRANCH   2  17
ATOM     17  C   UNL d   1      33.167  21.189 -23.682  0.00  0.00     0.299 C 
ATOM     18  O   UNL d   1      33.236  21.980 -23.428  0.00  0.00    -0.264 OA
ATOM     19  N   UNL d   1      33.104  21.025 -24.496  0.00  0.00    -0.102 N 
ENDBRANCH   2  17
TORSDOF 3
ENDMDL
MODEL 8
REMARK VINA RESULT:      -0.3      2.696      3.754
REMARK  3 active torsions:
REMARK  status: ('A' for Active; 'I' for Inactive)
REMARK    1  A    between atoms: N_5  and  C_1 
REMARK    2  A    between atoms: C_10  and  C_2 
REMARK       I    between atoms: C_8  and  N_5 
REMARK    3  A    between atoms: C_7  and  C_8 
ROOT
ATOM      1  C   UNL d   1      29.553  16.986 -24.131  0.00  0.00     0.119 A 
ATOM      2  C   UNL d   1      28.778  16.834 -23.862  0.00  0.00     0.084 A 
ATOM      3  S   UNL d   1      29.540  17.695 -24.547  0.00  0.00    -0.068 SA
ATOM      4  C   UNL d   1      28.293  17.453 -24.116  0.00  0.00     0.013 A 
ATOM      5  C   UNL d   1      28.767  17.989 -24.543  0.00  0.00     0.031 A 
ATOM      6  C   UNL d   1      27.485  17.532 -23.977  0.00  0.00     0.001 C 
ATOM      7  C   UNL d   1      28.506  18.686 -24.895  0.00  0.00     0.007 C 
ENDROOT
BRANCH   1   8
ATOM      8  N   UNL d   1      30.211  16.508 -23.999  0.00  0.00    -0.201 NA
ATOM      9  C   UNL d   1      30.968  16.800 -24.166  0.00  0.00     0.286 C 
ATOM     10  O   UNL d   1      31.074  17.553 -24.459  0.00  0.00    -0.265 OA
BRANCH   9  11
ATOM     11  C   UNL d   1      31.630  16.319 -24.034  0.00  0.00     0.088 A 
ATOM     12  S   UNL d   1      32.053  16.241 -23.320  0.00  0.00    -0.075 SA
ATOM     13  C   UNL d   1      32.674  15.700 -23.442  0.00  0.00     0.064 A 
ATOM     14 BR   UNL d   1      33.241  15.453 -22.877  0.00  0.00    -0.042 Br
ATOM     15  C   UNL d   1      32.625  15.453 -24.228  0.00  0.00     0.014 A 
ATOM     16  C   UNL d   1      31.990  15.829 -24.588  0.00  0.00     0.012 A 
ENDBRANCH   9  11
ENDBRANCH   1   8
BRANCH   2  17
ATOM     17  C   UNL d   1      28.540  16.180 -23.420  0.00  0.00     0.299 C 
ATOM     18  O   UNL d   1      28.627  16.183 -22.590  0.00  0.00    -0.264 OA
ATOM     19  N   UNL d   1      28.211  15.512 -23.793  0.00  0.00    -0.102 N 
ENDBRANCH   2  17
TORSDOF 3
ENDMDL
