MODEL 1
REMARK VINA RESULT:      -7.2      0.000      0.000
REMARK  4 active torsions:
REMARK  status: ('A' for Active; 'I' for Inactive)
REMARK    1  A    between atoms: C_3  and  C_1 
REMARK    2  A    between atoms: C_2  and  C_3 
REMARK    3  A    between atoms: C_6  and  C_2 
REMARK    4  A    between atoms: C_16  and  C_6 
ROOT
ATOM      1  C   UNL d   1     -46.570  12.411  23.354  0.00  0.00     0.119 A 
ATOM      2  C   UNL d   1     -45.854  12.553  22.977  0.00  0.00     0.119 A 
ATOM      3  O   UNL d   1     -46.527  11.662  23.694  0.00  0.00    -0.300 OA
ATOM      4  O   UNL d   1     -45.368  11.897  23.083  0.00  0.00    -0.300 OA
ATOM      5  C   UNL d   1     -45.793  11.344  23.531  0.00  0.00     0.304 A 
ATOM      6  C   UNL d   1     -47.167  12.981  23.338  0.00  0.00     0.026 A 
ATOM      7  C   UNL d   1     -47.041  13.705  22.936  0.00  0.00     0.002 A 
ATOM      8  C   UNL d   1     -45.728  13.278  22.576  0.00  0.00     0.026 A 
ATOM      9  C   UNL d   1     -46.319  13.854  22.554  0.00  0.00     0.002 A 
ENDROOT
BRANCH   7  10
ATOM     10  C   UNL d   1     -47.643  14.298  22.912  0.00  0.00     0.003 C 
BRANCH  10  11
ATOM     11  C   UNL d   1     -48.383  14.100  22.598  0.00  0.00     0.043 C 
BRANCH  11  12
ATOM     12  C   UNL d   1     -48.953  14.689  22.515  0.00  0.00     0.202 C 
ATOM     13  O   UNL d   1     -48.745  15.479  22.620  0.00  0.00    -0.286 OA
BRANCH  12  14
ATOM     14  C   UNL d   1     -49.732  14.495  22.328  0.00  0.00     0.068 A 
ATOM     15  S   UNL d   1     -50.067  14.086  21.685  0.00  0.00    -0.083 SA
ATOM     16  C   UNL d   1     -50.875  14.062  21.798  0.00  0.00     0.035 A 
ATOM     17  C   UNL d   1     -51.044  14.447  22.493  0.00  0.00     0.008 A 
ATOM     18  C   UNL d   1     -50.350  14.716  22.826  0.00  0.00     0.010 A 
ENDBRANCH  12  14
ENDBRANCH  11  12
ENDBRANCH  10  11
ENDBRANCH   7  10
TORSDOF 4
ENDMDL
MODEL 2
REMARK VINA RESULT:      -6.7      1.481      4.258
REMARK  4 active torsions:
REMARK  status: ('A' for Active; 'I' for Inactive)
REMARK    1  A    between atoms: C_3  and  C_1 
REMARK    2  A    between atoms: C_2  and  C_3 
REMARK    3  A    between atoms: C_6  and  C_2 
REMARK    4  A    between atoms: C_16  and  C_6 
ROOT
ATOM      1  C   UNL d   1     -49.780  14.014  21.895  0.00  0.00     0.119 A 
ATOM      2  C   UNL d   1     -50.111  14.702  22.198  0.00  0.00     0.119 A 
ATOM      3  O   UNL d   1     -50.353  13.646  21.433  0.00  0.00    -0.300 OA
ATOM      4  O   UNL d   1     -50.886  14.761  21.927  0.00  0.00    -0.300 OA
ATOM      5  C   UNL d   1     -51.032  14.099  21.450  0.00  0.00     0.304 A 
ATOM      6  C   UNL d   1     -49.000  13.814  22.079  0.00  0.00     0.026 A 
ATOM      7  C   UNL d   1     -48.547  14.314  22.576  0.00  0.00     0.002 A 
ATOM      8  C   UNL d   1     -49.658  15.202  22.696  0.00  0.00     0.026 A 
ATOM      9  C   UNL d   1     -48.877  15.010  22.885  0.00  0.00     0.002 A 
ENDROOT
BRANCH   7  10
ATOM     10  C   UNL d   1     -47.748  14.121  22.773  0.00  0.00     0.003 C 
BRANCH  10  11
ATOM     11  C   UNL d   1     -47.585  13.371  23.082  0.00  0.00     0.043 C 
BRANCH  11  12
ATOM     12  C   UNL d   1     -46.800  13.155  23.213  0.00  0.00     0.202 C 
ATOM     13  O   UNL d   1     -46.207  13.725  23.181  0.00  0.00    -0.286 OA
BRANCH  12  14
ATOM     14  C   UNL d   1     -46.604  12.371  23.377  0.00  0.00     0.068 A 
ATOM     15  S   UNL d   1     -47.060  11.721  23.625  0.00  0.00    -0.083 SA
ATOM     16  C   UNL d   1     -46.561  11.079  23.698  0.00  0.00     0.035 A 
ATOM     17  C   UNL d   1     -45.811  11.319  23.501  0.00  0.00     0.008 A 
ATOM     18  C   UNL d   1     -45.825  12.110  23.302  0.00  0.00     0.010 A 
ENDBRANCH  12  14
ENDBRANCH  11  12
ENDBRANCH  10  11
ENDBRANCH   7  10
TORSDOF 4
ENDMDL
MODEL 3
REMARK VINA RESULT:      -6.7      1.150      1.607
REMARK  4 active torsions:
REMARK  status: ('A' for Active; 'I' for Inactive)
REMARK    1  A    between atoms: C_3  and  C_1 
REMARK    2  A    between atoms: C_2  and  C_3 
REMARK    3  A    between atoms: C_6  and  C_2 
REMARK    4  A    between atoms: C_16  and  C_6 
ROOT
ATOM      1  C   UNL d   1     -46.315  13.305  22.642  0.00  0.00     0.119 A 
ATOM      2  C   UNL d   1     -45.991  12.598  22.904  0.00  0.00     0.119 A 
ATOM      3  O   UNL d   1     -45.724  13.715  22.240  0.00  0.00    -0.300 OA
ATOM      4  O   UNL d   1     -45.203  12.567  22.666  0.00  0.00    -0.300 OA
ATOM      5  C   UNL d   1     -45.042  13.267  22.252  0.00  0.00     0.304 A 
ATOM      6  C   UNL d   1     -47.104  13.484  22.803  0.00  0.00     0.026 A 
ATOM      7  C   UNL d   1     -47.575  12.942  23.235  0.00  0.00     0.002 A 
ATOM      8  C   UNL d   1     -46.462  12.056  23.336  0.00  0.00     0.026 A 
ATOM      9  C   UNL d   1     -47.252  12.226  23.503  0.00  0.00     0.002 A 
ENDROOT
BRANCH   7  10
ATOM     10  C   UNL d   1     -48.385  13.112  23.408  0.00  0.00     0.003 C 
BRANCH  10  11
ATOM     11  C   UNL d   1     -48.918  13.188  22.780  0.00  0.00     0.043 C 
BRANCH  11  12
ATOM     12  C   UNL d   1     -49.723  13.259  22.944  0.00  0.00     0.202 C 
ATOM     13  O   UNL d   1     -50.007  13.062  23.691  0.00  0.00    -0.286 OA
BRANCH  12  14
ATOM     14  C   UNL d   1     -50.246  13.525  22.365  0.00  0.00     0.068 A 
ATOM     15  S   UNL d   1     -50.555  14.279  22.195  0.00  0.00    -0.083 SA
ATOM     16  C   UNL d   1     -51.052  14.206  21.553  0.00  0.00     0.035 A 
ATOM     17  C   UNL d   1     -51.057  13.427  21.324  0.00  0.00     0.008 A 
ATOM     18  C   UNL d   1     -50.565  13.000  21.816  0.00  0.00     0.010 A 
ENDBRANCH  12  14
ENDBRANCH  11  12
ENDBRANCH  10  11
ENDBRANCH   7  10
TORSDOF 4
ENDMDL
MODEL 4
REMARK VINA RESULT:      -6.3      1.780      4.567
REMARK  4 active torsions:
REMARK  status: ('A' for Active; 'I' for Inactive)
REMARK    1  A    between atoms: C_3  and  C_1 
REMARK    2  A    between atoms: C_2  and  C_3 
REMARK    3  A    between atoms: C_6  and  C_2 
REMARK    4  A    between atoms: C_16  and  C_6 
ROOT
ATOM      1  C   UNL d   1     -50.099  14.679  23.333  0.00  0.00     0.119 A 
ATOM      2  C   UNL d   1     -50.739  14.727  22.821  0.00  0.00     0.119 A 
ATOM      3  O   UNL d   1     -50.004  15.420  23.681  0.00  0.00    -0.300 OA
ATOM      4  O   UNL d   1     -51.040  15.492  22.850  0.00  0.00    -0.300 OA
ATOM      5  C   UNL d   1     -50.578  15.921  23.388  0.00  0.00     0.304 A 
ATOM      6  C   UNL d   1     -49.686  13.969  23.416  0.00  0.00     0.026 A 
ATOM      7  C   UNL d   1     -49.922  13.296  22.976  0.00  0.00     0.002 A 
ATOM      8  C   UNL d   1     -50.974  14.054  22.380  0.00  0.00     0.026 A 
ATOM      9  C   UNL d   1     -50.568  13.339  22.456  0.00  0.00     0.002 A 
ENDROOT
BRANCH   7  10
ATOM     10  C   UNL d   1     -49.509  12.562  23.050  0.00  0.00     0.003 C 
BRANCH  10  11
ATOM     11  C   UNL d   1     -48.699  12.578  23.221  0.00  0.00     0.043 C 
BRANCH  11  12
ATOM     12  C   UNL d   1     -48.293  11.864  23.298  0.00  0.00     0.202 C 
ATOM     13  O   UNL d   1     -48.710  11.154  23.299  0.00  0.00    -0.286 OA
BRANCH  12  14
ATOM     14  C   UNL d   1     -47.473  11.856  23.374  0.00  0.00     0.068 A 
ATOM     15  S   UNL d   1     -46.888  12.416  23.182  0.00  0.00    -0.083 SA
ATOM     16  C   UNL d   1     -46.164  12.099  23.385  0.00  0.00     0.035 A 
ATOM     17  C   UNL d   1     -46.289  11.360  23.696  0.00  0.00     0.008 A 
ATOM     18  C   UNL d   1     -47.089  11.200  23.695  0.00  0.00     0.010 A 
ENDBRANCH  12  14
ENDBRANCH  11  12
ENDBRANCH  10  11
ENDBRANCH   7  10
TORSDOF 4
ENDMDL
MODEL 5
REMARK VINA RESULT:      -5.9      8.291      8.950
REMARK  4 active torsions:
REMARK  status: ('A' for Active; 'I' for Inactive)
REMARK    1  A    between atoms: C_3  and  C_1 
REMARK    2  A    between atoms: C_2  and  C_3 
REMARK    3  A    between atoms: C_6  and  C_2 
REMARK    4  A    between atoms: C_16  and  C_6 
ROOT
ATOM      1  C   UNL d   1     -39.427  14.853  21.698  0.00  0.00     0.119 A 
ATOM      2  C   UNL d   1     -39.761  15.559  21.950  0.00  0.00     0.119 A 
ATOM      3  O   UNL d   1     -38.855  14.638  22.249  0.00  0.00    -0.300 OA
ATOM      4  O   UNL d   1     -39.399  15.783  22.655  0.00  0.00    -0.300 OA
ATOM      5  C   UNL d   1     -38.834  15.204  22.837  0.00  0.00     0.304 A 
ATOM      6  C   UNL d   1     -39.688  14.498  20.999  0.00  0.00     0.026 A 
ATOM      7  C   UNL d   1     -40.294  14.860  20.548  0.00  0.00     0.002 A 
ATOM      8  C   UNL d   1     -40.367  15.922  21.499  0.00  0.00     0.026 A 
ATOM      9  C   UNL d   1     -40.634  15.575  20.799  0.00  0.00     0.002 A 
ENDROOT
BRANCH   7  10
ATOM     10  C   UNL d   1     -40.570  14.509  19.831  0.00  0.00     0.003 C 
BRANCH  10  11
ATOM     11  C   UNL d   1     -40.319  14.827  19.109  0.00  0.00     0.043 C 
BRANCH  11  12
ATOM     12  C   UNL d   1     -40.561  14.468  18.408  0.00  0.00     0.202 C 
ATOM     13  O   UNL d   1     -40.989  13.766  18.433  0.00  0.00    -0.286 OA
BRANCH  12  14
ATOM     14  C   UNL d   1     -40.377  14.807  17.679  0.00  0.00     0.068 A 
ATOM     15  S   UNL d   1     -39.679  14.811  17.225  0.00  0.00    -0.083 SA
ATOM     16  C   UNL d   1     -39.826  15.239  16.546  0.00  0.00     0.035 A 
ATOM     17  C   UNL d   1     -40.595  15.499  16.572  0.00  0.00     0.008 A 
ATOM     18  C   UNL d   1     -40.942  15.239  17.263  0.00  0.00     0.010 A 
ENDBRANCH  12  14
ENDBRANCH  11  12
ENDBRANCH  10  11
ENDBRANCH   7  10
TORSDOF 4
ENDMDL
MODEL 6
REMARK VINA RESULT:      -5.8      2.069      4.097
REMARK  4 active torsions:
REMARK  status: ('A' for Active; 'I' for Inactive)
REMARK    1  A    between atoms: C_3  and  C_1 
REMARK    2  A    between atoms: C_2  and  C_3 
REMARK    3  A    between atoms: C_6  and  C_2 
REMARK    4  A    between atoms: C_16  and  C_6 
ROOT
ATOM      1  C   UNL d   1     -49.891  12.757  23.186  0.00  0.00     0.119 A 
ATOM      2  C   UNL d   1     -50.342  12.884  22.512  0.00  0.00     0.119 A 
ATOM      3  O   UNL d   1     -50.337  12.289  23.698  0.00  0.00    -0.300 OA
ATOM      4  O   UNL d   1     -51.064  12.498  22.603  0.00  0.00    -0.300 OA
ATOM      5  C   UNL d   1     -51.055  12.129  23.345  0.00  0.00     0.304 A 
ATOM      6  C   UNL d   1     -49.135  13.082  23.247  0.00  0.00     0.026 A 
ATOM      7  C   UNL d   1     -48.828  13.543  22.618  0.00  0.00     0.002 A 
ATOM      8  C   UNL d   1     -50.035  13.345  21.883  0.00  0.00     0.026 A 
ATOM      9  C   UNL d   1     -49.280  13.675  21.934  0.00  0.00     0.002 A 
ENDROOT
BRANCH   7  10
ATOM     10  C   UNL d   1     -48.056  13.883  22.666  0.00  0.00     0.003 C 
BRANCH  10  11
ATOM     11  C   UNL d   1     -47.398  13.381  22.636  0.00  0.00     0.043 C 
BRANCH  11  12
ATOM     12  C   UNL d   1     -46.644  13.703  22.719  0.00  0.00     0.202 C 
ATOM     13  O   UNL d   1     -46.558  14.494  22.934  0.00  0.00    -0.286 OA
BRANCH  12  14
ATOM     14  C   UNL d   1     -45.974  13.241  22.588  0.00  0.00     0.068 A 
ATOM     15  S   UNL d   1     -45.720  12.520  22.918  0.00  0.00    -0.083 SA
ATOM     16  C   UNL d   1     -45.007  12.326  22.572  0.00  0.00     0.035 A 
ATOM     17  C   UNL d   1     -44.817  12.909  22.039  0.00  0.00     0.008 A 
ATOM     18  C   UNL d   1     -45.404  13.476  22.041  0.00  0.00     0.010 A 
ENDBRANCH  12  14
ENDBRANCH  11  12
ENDBRANCH  10  11
ENDBRANCH   7  10
TORSDOF 4
ENDMDL
MODEL 7
REMARK VINA RESULT:      -5.6      8.122      9.553
REMARK  4 active torsions:
REMARK  status: ('A' for Active; 'I' for Inactive)
REMARK    1  A    between atoms: C_3  and  C_1 
REMARK    2  A    between atoms: C_2  and  C_3 
REMARK    3  A    between atoms: C_6  and  C_2 
REMARK    4  A    between atoms: C_16  and  C_6 
ROOT
ATOM      1  C   UNL d   1     -39.159  13.909  17.335  0.00  0.00     0.119 A 
ATOM      2  C   UNL d   1     -39.491  14.416  16.781  0.00  0.00     0.119 A 
ATOM      3  O   UNL d   1     -38.524  13.528  16.974  0.00  0.00    -0.300 OA
ATOM      4  O   UNL d   1     -39.065  14.352  16.080  0.00  0.00    -0.300 OA
ATOM      5  C   UNL d   1     -38.463  13.797  16.205  0.00  0.00     0.304 A 
ATOM      6  C   UNL d   1     -39.478  13.859  18.095  0.00  0.00     0.026 A 
ATOM      7  C   UNL d   1     -40.142  14.328  18.300  0.00  0.00     0.002 A 
ATOM      8  C   UNL d   1     -40.155  14.885  16.987  0.00  0.00     0.026 A 
ATOM      9  C   UNL d   1     -40.481  14.842  17.744  0.00  0.00     0.002 A 
ENDROOT
BRANCH   7  10
ATOM     10  C   UNL d   1     -40.479  14.287  19.074  0.00  0.00     0.003 C 
BRANCH  10  11
ATOM     11  C   UNL d   1     -40.135  14.733  19.681  0.00  0.00     0.043 C 
BRANCH  11  12
ATOM     12  C   UNL d   1     -40.447  14.680  20.442  0.00  0.00     0.202 C 
ATOM     13  O   UNL d   1     -41.128  14.238  20.576  0.00  0.00    -0.286 OA
BRANCH  12  14
ATOM     14  C   UNL d   1     -40.082  15.067  21.072  0.00  0.00     0.068 A 
ATOM     15  S   UNL d   1     -40.081  15.863  21.315  0.00  0.00    -0.083 SA
ATOM     16  C   UNL d   1     -39.617  15.920  21.983  0.00  0.00     0.035 A 
ATOM     17  C   UNL d   1     -39.333  15.180  22.158  0.00  0.00     0.008 A 
ATOM     18  C   UNL d   1     -39.612  14.649  21.605  0.00  0.00     0.010 A 
ENDBRANCH  12  14
ENDBRANCH  11  12
ENDBRANCH  10  11
ENDBRANCH   7  10
TORSDOF 4
ENDMDL
MODEL 8
REMARK VINA RESULT:      -5.1      8.394      9.419
REMARK  4 active torsions:
REMARK  status: ('A' for Active; 'I' for Inactive)
REMARK    1  A    between atoms: C_3  and  C_1 
REMARK    2  A    between atoms: C_2  and  C_3 
REMARK    3  A    between atoms: C_6  and  C_2 
REMARK    4  A    between atoms: C_16  and  C_6 
ROOT
ATOM      1  C   UNL d   1     -40.908  15.354  17.814  0.00  0.00     0.119 A 
ATOM      2  C   UNL d   1     -40.438  14.908  17.310  0.00  0.00     0.119 A 
ATOM      3  O   UNL d   1     -41.303  15.913  17.355  0.00  0.00    -0.300 OA
ATOM      4  O   UNL d   1     -40.539  15.187  16.542  0.00  0.00    -0.300 OA
ATOM      5  C   UNL d   1     -41.080  15.814  16.576  0.00  0.00     0.304 A 
ATOM      6  C   UNL d   1     -40.916  15.194  18.624  0.00  0.00     0.026 A 
ATOM      7  C   UNL d   1     -40.442  14.575  18.931  0.00  0.00     0.002 A 
ATOM      8  C   UNL d   1     -39.964  14.288  17.618  0.00  0.00     0.026 A 
ATOM      9  C   UNL d   1     -39.965  14.121  18.426  0.00  0.00     0.002 A 
ENDROOT
BRANCH   7  10
ATOM     10  C   UNL d   1     -40.440  14.400  19.758  0.00  0.00     0.003 C 
BRANCH  10  11
ATOM     11  C   UNL d   1     -39.881  14.771  20.241  0.00  0.00     0.043 C 
BRANCH  11  12
ATOM     12  C   UNL d   1     -39.907  14.643  21.055  0.00  0.00     0.202 C 
ATOM     13  O   UNL d   1     -40.476  14.140  21.373  0.00  0.00    -0.286 OA
BRANCH  12  14
ATOM     14  C   UNL d   1     -39.367  15.015  21.555  0.00  0.00     0.068 A 
ATOM     15  S   UNL d   1     -38.575  14.845  21.748  0.00  0.00    -0.083 SA
ATOM     16  C   UNL d   1     -38.321  15.410  22.279  0.00  0.00     0.035 A 
ATOM     17  C   UNL d   1     -38.936  15.922  22.417  0.00  0.00     0.008 A 
ATOM     18  C   UNL d   1     -39.583  15.689  21.978  0.00  0.00     0.010 A 
ENDBRANCH  12  14
ENDBRANCH  11  12
ENDBRANCH  10  11
ENDBRANCH   7  10
TORSDOF 4
ENDMDL
