MODEL 1
REMARK VINA RESULT:      -3.8      0.000      0.000
REMARK  3 active torsions:
REMARK  status: ('A' for Active; 'I' for Inactive)
REMARK    1  A    between atoms: C_7  and  N_1 
REMARK    2  A    between atoms: C_2  and  C_5 
REMARK    3  A    between atoms: N_3  and  C_2 
REMARK       I    between atoms: C_6  and  N_4 
ROOT
ATOM      1  C   UNL d   1      58.011   0.172  30.063  0.00  0.00     0.120 C 
ATOM      2  S   UNL d   1      57.622   0.682  29.542  0.00  0.00    -0.059 SA
ENDROOT
BRANCH   1   3
ATOM      3  C   UNL d   1      57.818   0.181  30.872  0.00  0.00     0.028 A 
ATOM      4  C   UNL d   1      57.213  -0.306  31.156  0.00  0.00     0.026 A 
ATOM      5  C   UNL d   1      57.019  -0.299  31.958  0.00  0.00     0.127 A 
ATOM      6  C   UNL d   1      57.430   0.194  32.476  0.00  0.00     0.024 A 
ATOM      7  C   UNL d   1      58.035   0.681  32.192  0.00  0.00     0.002 A 
ATOM      8  C   UNL d   1      58.229   0.675  31.390  0.00  0.00     0.002 A 
BRANCH   5   9
ATOM      9  N   UNL d   1      56.415  -0.785  32.247  0.00  0.00    -0.114 N 
ATOM     10  O   UNL d   1      56.461  -1.607  32.179  0.00  0.00    -0.532 OA
ATOM     11  O   UNL d   1      55.761  -0.432  32.606  0.00  0.00    -0.532 OA
ENDBRANCH   5   9
ENDBRANCH   1   3
BRANCH   1  12
ATOM     12  N   UNL d   1      58.589  -0.345  29.781  0.00  0.00    -0.293 N 
ATOM     13  C   UNL d   1      59.381  -0.103  29.752  0.00  0.00     0.100 A 
ATOM     14  C   UNL d   1      59.960  -0.620  29.470  0.00  0.00     0.102 A 
ATOM     15  N   UNL d   1      59.750  -1.379  29.218  0.00  0.00    -0.269 N 
ATOM     16  C   UNL d   1      58.959  -1.621  29.248  0.00  0.00     0.102 A 
ATOM     17  C   UNL d   1      60.329  -1.895  28.937  0.00  0.00     0.265 C 
ATOM     18  C   UNL d   1      58.380  -1.105  29.529  0.00  0.00     0.100 A 
ATOM     19  O   UNL d   1      60.120  -2.655  28.685  0.00  0.00    -0.267 OA
ATOM     20  C   UNL d   1      61.116  -1.657  28.907  0.00  0.00     0.066 C 
ENDBRANCH   1  12
TORSDOF 3
ENDMDL
MODEL 2
REMARK VINA RESULT:      -3.7      1.958      2.613
REMARK  3 active torsions:
REMARK  status: ('A' for Active; 'I' for Inactive)
REMARK    1  A    between atoms: C_7  and  N_1 
REMARK    2  A    between atoms: C_2  and  C_5 
REMARK    3  A    between atoms: N_3  and  C_2 
REMARK       I    between atoms: C_6  and  N_4 
ROOT
ATOM      1  C   UNL d   1      57.451   0.284  32.318  0.00  0.00     0.120 C 
ATOM      2  S   UNL d   1      57.923   0.677  32.871  0.00  0.00    -0.059 SA
ENDROOT
BRANCH   1   3
ATOM      3  C   UNL d   1      56.772  -0.124  32.570  0.00  0.00     0.028 A 
ATOM      4  C   UNL d   1      56.240   0.242  33.087  0.00  0.00     0.026 A 
ATOM      5  C   UNL d   1      55.565  -0.161  33.339  0.00  0.00     0.127 A 
ATOM      6  C   UNL d   1      55.422  -0.929  33.074  0.00  0.00     0.024 A 
ATOM      7  C   UNL d   1      55.953  -1.294  32.557  0.00  0.00     0.002 A 
ATOM      8  C   UNL d   1      56.629  -0.893  32.305  0.00  0.00     0.002 A 
BRANCH   5   9
ATOM      9  N   UNL d   1      55.031   0.201  33.856  0.00  0.00    -0.114 N 
ATOM     10  O   UNL d   1      54.249   0.346  33.628  0.00  0.00    -0.532 OA
ATOM     11  O   UNL d   1      55.291   0.417  34.608  0.00  0.00    -0.532 OA
ENDBRANCH   5   9
ENDBRANCH   1   3
BRANCH   1  12
ATOM     12  N   UNL d   1      57.653   0.297  31.518  0.00  0.00    -0.293 N 
ATOM     13  C   UNL d   1      58.369  -0.037  31.267  0.00  0.00     0.100 A 
ATOM     14  C   UNL d   1      58.571  -0.024  30.467  0.00  0.00     0.102 A 
ATOM     15  N   UNL d   1      58.060   0.320  29.915  0.00  0.00    -0.269 N 
ATOM     16  C   UNL d   1      57.345   0.654  30.167  0.00  0.00     0.102 A 
ATOM     17  C   UNL d   1      58.263   0.332  29.116  0.00  0.00     0.265 C 
ATOM     18  C   UNL d   1      57.142   0.642  30.966  0.00  0.00     0.100 A 
ATOM     19  O   UNL d   1      57.752   0.677  28.564  0.00  0.00    -0.267 OA
ATOM     20  C   UNL d   1      58.973   0.002  28.864  0.00  0.00     0.066 C 
ENDBRANCH   1  12
TORSDOF 3
ENDMDL
MODEL 3
REMARK VINA RESULT:      -3.5      0.924      3.911
REMARK  3 active torsions:
REMARK  status: ('A' for Active; 'I' for Inactive)
REMARK    1  A    between atoms: C_7  and  N_1 
REMARK    2  A    between atoms: C_2  and  C_5 
REMARK    3  A    between atoms: N_3  and  C_2 
REMARK       I    between atoms: C_6  and  N_4 
ROOT
ATOM      1  C   UNL d   1      58.310   0.293  29.947  0.00  0.00     0.120 C 
ATOM      2  S   UNL d   1      57.963   0.648  29.286  0.00  0.00    -0.059 SA
ENDROOT
BRANCH   1   3
ATOM      3  C   UNL d   1      59.134   0.174  29.968  0.00  0.00     0.028 A 
ATOM      4  C   UNL d   1      59.469  -0.453  29.544  0.00  0.00     0.026 A 
ATOM      5  C   UNL d   1      60.285  -0.574  29.563  0.00  0.00     0.127 A 
ATOM      6  C   UNL d   1      60.765  -0.069  30.005  0.00  0.00     0.024 A 
ATOM      7  C   UNL d   1      60.430   0.557  30.428  0.00  0.00     0.002 A 
ATOM      8  C   UNL d   1      59.614   0.679  30.410  0.00  0.00     0.002 A 
BRANCH   5   9
ATOM      9  N   UNL d   1      60.625  -1.199  29.141  0.00  0.00    -0.114 N 
ATOM     10  O   UNL d   1      60.533  -1.981  29.392  0.00  0.00    -0.532 OA
ATOM     11  O   UNL d   1      61.060  -1.028  28.462  0.00  0.00    -0.532 OA
ENDBRANCH   5   9
ENDBRANCH   1   3
BRANCH   1  12
ATOM     12  N   UNL d   1      57.842   0.058  30.584  0.00  0.00    -0.293 N 
ATOM     13  C   UNL d   1      57.698   0.585  31.208  0.00  0.00     0.100 A 
ATOM     14  C   UNL d   1      57.230   0.350  31.846  0.00  0.00     0.102 A 
ATOM     15  N   UNL d   1      56.904  -0.410  31.863  0.00  0.00    -0.269 N 
ATOM     16  C   UNL d   1      57.048  -0.936  31.240  0.00  0.00     0.102 A 
ATOM     17  C   UNL d   1      56.436  -0.644  32.501  0.00  0.00     0.265 C 
ATOM     18  C   UNL d   1      57.516  -0.702  30.602  0.00  0.00     0.100 A 
ATOM     19  O   UNL d   1      56.110  -1.404  32.518  0.00  0.00    -0.267 OA
ATOM     20  C   UNL d   1      56.292  -0.123  33.121  0.00  0.00     0.066 C 
ENDBRANCH   1  12
TORSDOF 3
ENDMDL
MODEL 4
REMARK VINA RESULT:      -2.7      9.065      9.478
REMARK  3 active torsions:
REMARK  status: ('A' for Active; 'I' for Inactive)
REMARK    1  A    between atoms: C_7  and  N_1 
REMARK    2  A    between atoms: C_2  and  C_5 
REMARK    3  A    between atoms: N_3  and  C_2 
REMARK       I    between atoms: C_6  and  N_4 
ROOT
ATOM      1  C   UNL d   1      60.155  -9.445  34.127  0.00  0.00     0.120 C 
ATOM      2  S   UNL d   1      60.932  -9.709  34.037  0.00  0.00    -0.059 SA
ENDROOT
BRANCH   1   3
ATOM      3  C   UNL d   1      59.917  -9.096  34.845  0.00  0.00     0.028 A 
ATOM      4  C   UNL d   1      60.019  -8.284  34.961  0.00  0.00     0.026 A 
ATOM      5  C   UNL d   1      59.784  -7.935  35.671  0.00  0.00     0.127 A 
ATOM      6  C   UNL d   1      59.448  -8.398  36.265  0.00  0.00     0.024 A 
ATOM      7  C   UNL d   1      59.347  -9.211  36.149  0.00  0.00     0.002 A 
ATOM      8  C   UNL d   1      59.581  -9.560  35.439  0.00  0.00     0.002 A 
BRANCH   5   9
ATOM      9  N   UNL d   1      59.883  -7.123  35.791  0.00  0.00    -0.114 N 
ATOM     10  O   UNL d   1      60.604  -6.753  35.624  0.00  0.00    -0.532 OA
ATOM     11  O   UNL d   1      59.248  -6.685  36.082  0.00  0.00    -0.532 OA
ENDBRANCH   5   9
ENDBRANCH   1   3
BRANCH   1  12
ATOM     12  N   UNL d   1      59.615  -9.527  33.509  0.00  0.00    -0.293 N 
ATOM     13  C   UNL d   1      59.886  -9.568  32.726  0.00  0.00     0.100 A 
ATOM     14  C   UNL d   1      59.346  -9.650  32.108  0.00  0.00     0.102 A 
ATOM     15  N   UNL d   1      58.535  -9.691  32.267  0.00  0.00    -0.269 N 
ATOM     16  C   UNL d   1      58.265  -9.649  33.049  0.00  0.00     0.102 A 
ATOM     17  C   UNL d   1      57.996  -9.773  31.648  0.00  0.00     0.265 C 
ATOM     18  C   UNL d   1      58.804  -9.568  33.668  0.00  0.00     0.100 A 
ATOM     19  O   UNL d   1      57.186  -9.813  31.807  0.00  0.00    -0.267 OA
ATOM     20  C   UNL d   1      58.263  -9.814  30.871  0.00  0.00     0.066 C 
ENDBRANCH   1  12
TORSDOF 3
ENDMDL
MODEL 5
REMARK VINA RESULT:      -2.2      1.202      3.890
REMARK  3 active torsions:
REMARK  status: ('A' for Active; 'I' for Inactive)
REMARK    1  A    between atoms: C_7  and  N_1 
REMARK    2  A    between atoms: C_2  and  C_5 
REMARK    3  A    between atoms: N_3  and  C_2 
REMARK       I    between atoms: C_6  and  N_4 
ROOT
ATOM      1  C   UNL d   1      59.227   0.083  29.265  0.00  0.00     0.120 C 
ATOM      2  S   UNL d   1      59.255   0.681  28.696  0.00  0.00    -0.059 SA
ENDROOT
BRANCH   1   3
ATOM      3  C   UNL d   1      59.649  -0.624  29.144  0.00  0.00     0.028 A 
ATOM      4  C   UNL d   1      59.240  -1.339  29.070  0.00  0.00     0.026 A 
ATOM      5  C   UNL d   1      59.655  -2.041  28.949  0.00  0.00     0.127 A 
ATOM      6  C   UNL d   1      60.479  -2.030  28.903  0.00  0.00     0.024 A 
ATOM      7  C   UNL d   1      60.888  -1.314  28.976  0.00  0.00     0.002 A 
ATOM      8  C   UNL d   1      60.473  -0.611  29.097  0.00  0.00     0.002 A 
BRANCH   5   9
ATOM      9  N   UNL d   1      59.251  -2.759  28.875  0.00  0.00    -0.114 N 
ATOM     10  O   UNL d   1      59.557  -3.455  29.199  0.00  0.00    -0.532 OA
ATOM     11  O   UNL d   1      58.533  -2.769  28.469  0.00  0.00    -0.532 OA
ENDBRANCH   5   9
ENDBRANCH   1   3
BRANCH   1  12
ATOM     12  N   UNL d   1      58.782   0.187  29.952  0.00  0.00    -0.293 N 
ATOM     13  C   UNL d   1      57.958   0.105  29.927  0.00  0.00     0.100 A 
ATOM     14  C   UNL d   1      57.513   0.209  30.615  0.00  0.00     0.102 A 
ATOM     15  N   UNL d   1      57.888   0.393  31.328  0.00  0.00    -0.269 N 
ATOM     16  C   UNL d   1      58.712   0.474  31.352  0.00  0.00     0.102 A 
ATOM     17  C   UNL d   1      57.443   0.496  32.015  0.00  0.00     0.265 C 
ATOM     18  C   UNL d   1      59.158   0.371  30.666  0.00  0.00     0.100 A 
ATOM     19  O   UNL d   1      57.819   0.680  32.728  0.00  0.00    -0.267 OA
ATOM     20  C   UNL d   1      56.624   0.416  31.992  0.00  0.00     0.066 C 
ENDBRANCH   1  12
TORSDOF 3
ENDMDL
