MODEL 1
REMARK VINA RESULT:      45.7      0.000      0.000
REMARK  2 active torsions:
REMARK  status: ('A' for Active; 'I' for Inactive)
REMARK    1  A    between atoms: N_2  and  S_1 
REMARK    2  A    between atoms: C_3  and  S_1 
ROOT
ATOM      1  C   UNL d   1      59.433  49.297  50.525  0.00  0.00     0.104 A 
ATOM      2  O   UNL d   1      57.447  49.174  49.060  0.00  0.00    -0.273 OA
ATOM      3  C   UNL d   1      56.698  49.398  49.350  0.00  0.00     0.300 A 
ATOM      4  C   UNL d   1      58.034  49.479  50.329  0.00  0.00     0.024 A 
ATOM      5  C   UNL d   1      58.109  49.215  49.548  0.00  0.00     0.103 A 
ATOM      6  C   UNL d   1      57.288  49.706  50.627  0.00  0.00     0.007 A 
ATOM      7  C   UNL d   1      58.696  49.520  50.816  0.00  0.00     0.015 A 
ATOM      8  C   UNL d   1      56.623  49.663  50.131  0.00  0.00     0.069 A 
ATOM      9  C   UNL d   1      59.508  49.033  49.744  0.00  0.00     0.015 A 
ATOM     10  O   UNL d   1      56.037  49.355  48.855  0.00  0.00    -0.259 OA
ATOM     11  C   UNL d   1      58.846  48.992  49.256  0.00  0.00     0.025 A 
ENDROOT
BRANCH   1  12
ATOM     12  S   UNL d   1      60.095  49.337  51.007  0.00  0.00     0.272 S 
ATOM     13  O   UNL d   1      60.582  49.142  50.370  0.00  0.00    -0.200 OA
ATOM     14  O   UNL d   1      59.618  49.532  51.651  0.00  0.00    -0.200 OA
BRANCH  12  15
ATOM     15  N   UNL d   1      60.762  49.377  51.496  0.00  0.00    -0.225 N 
ATOM     16  C   UNL d   1      60.690  49.654  52.274  0.00  0.00     0.118 A 
ATOM     17  C   UNL d   1      61.352  49.695  52.760  0.00  0.00     0.142 A 
ATOM     18  O   UNL d   1      62.093  49.461  52.482  0.00  0.00    -0.300 OA
ATOM     19  C   UNL d   1      62.166  49.182  51.701  0.00  0.00     0.142 A 
ATOM     20  C   UNL d   1      61.505  49.140  51.209  0.00  0.00     0.118 A 
ENDBRANCH  12  15
ENDBRANCH   1  12
TORSDOF 2
ENDMDL
