MODEL 1
REMARK VINA RESULT:      74.5      0.000      0.000
REMARK  7 active torsions:
REMARK  status: ('A' for Active; 'I' for Inactive)
REMARK    1  A    between atoms: P_4  and  C_1 
REMARK    2  A    between atoms: N_7  and  C_3 
REMARK    3  A    between atoms: C_9  and  P_4 
REMARK    4  A    between atoms: C_10  and  P_4 
REMARK    5  A    between atoms: C_11  and  C_5 
REMARK    6  A    between atoms: C_12  and  N_7 
REMARK    7  A    between atoms: C_13  and  C_12 
ROOT
ATOM      1  C   UNL d   1      45.342 -14.774  43.805  0.00  0.00     0.161 A 
ATOM      2  N   UNL d   1      45.360 -15.603  43.856  0.00  0.00    -0.215 NA
ATOM      3  C   UNL d   1      45.852 -14.523  43.148  0.00  0.00     0.205 A 
ATOM      4  C   UNL d   1      45.846 -15.894  43.277  0.00  0.00     0.184 A 
ATOM      5  O   UNL d   1      46.176 -15.252  42.810  0.00  0.00    -0.270 OA
ENDROOT
BRANCH   1   6
ATOM      6  P   UNL d   1      45.035 -14.205  44.136  0.00  0.00     0.195 P 
ATOM      7  O   UNL d   1      45.803 -14.290  43.935  0.00  0.00    -0.305 OA
BRANCH   6   8
ATOM      8  C   UNL d   1      45.381 -13.492  44.397  0.00  0.00     0.038 A 
ATOM      9  C   UNL d   1      44.949 -12.799  44.371  0.00  0.00     0.004 A 
ATOM     10  C   UNL d   1      45.292 -12.094  44.629  0.00  0.00     0.000 A 
ATOM     11  C   UNL d   1      46.059 -12.095  44.908  0.00  0.00     0.000 A 
ATOM     12  C   UNL d   1      46.491 -12.788  44.934  0.00  0.00     0.000 A 
ATOM     13  C   UNL d   1      46.149 -13.493  44.676  0.00  0.00     0.004 A 
ENDBRANCH   6   8
BRANCH   6  14
ATOM     14  C   UNL d   1      44.194 -13.911  44.450  0.00  0.00     0.038 A 
ATOM     15  C   UNL d   1      43.690 -13.307  44.668  0.00  0.00     0.004 A 
ATOM     16  C   UNL d   1      42.943 -13.476  44.917  0.00  0.00     0.000 A 
ATOM     17  C   UNL d   1      42.681 -14.267  44.953  0.00  0.00     0.000 A 
ATOM     18  C   UNL d   1      43.173 -14.866  44.740  0.00  0.00     0.000 A 
ATOM     19  C   UNL d   1      43.932 -14.702  44.486  0.00  0.00     0.004 A 
ENDBRANCH   6  14
ENDBRANCH   1   6
BRANCH   3  20
ATOM     20  N   UNL d   1      45.857 -13.754  43.074  0.00  0.00    -0.219 NA
BRANCH  20  21
ATOM     21  C   UNL d   1      45.616 -13.098  42.625  0.00  0.00     0.101 C 
BRANCH  21  22
ATOM     22  C   UNL d   1      45.726 -13.077  41.823  0.00  0.00     0.019 A 
ATOM     23  C   UNL d   1      45.082 -12.985  41.310  0.00  0.00     0.002 A 
ATOM     24  C   UNL d   1      45.211 -12.964  40.475  0.00  0.00     0.000 A 
ATOM     25  C   UNL d   1      45.971 -13.034  40.164  0.00  0.00     0.000 A 
ATOM     26  C   UNL d   1      46.631 -13.129  40.691  0.00  0.00     0.000 A 
ATOM     27  C   UNL d   1      46.500 -13.149  41.521  0.00  0.00     0.002 A 
ENDBRANCH  21  22
ENDBRANCH  20  21
ENDBRANCH   3  20
BRANCH   4  28
ATOM     28  C   UNL d   1      45.979 -16.707  43.184  0.00  0.00     0.041 A 
ATOM     29  C   UNL d   1      45.590 -17.141  42.574  0.00  0.00     0.004 A 
ATOM     30  C   UNL d   1      45.742 -17.963  42.501  0.00  0.00     0.000 A 
ATOM     31  C   UNL d   1      46.257 -18.350  43.007  0.00  0.00     0.000 A 
ATOM     32  C   UNL d   1      46.645 -17.911  43.619  0.00  0.00     0.000 A 
ATOM     33  C   UNL d   1      46.497 -17.081  43.698  0.00  0.00     0.004 A 
ENDBRANCH   4  28
TORSDOF 7
ENDMDL
