MODEL 1
REMARK VINA RESULT:       0.3      0.000      0.000
REMARK  5 active torsions:
REMARK  status: ('A' for Active; 'I' for Inactive)
REMARK    1  A    between atoms: O_8  and  C_2 
REMARK    2  A    between atoms: C_9  and  C_5 
REMARK    3  A    between atoms: C_14  and  O_8 
REMARK    4  A    between atoms: N_11  and  C_9 
REMARK    5  A    between atoms: O_20  and  C_17 
ROOT
ATOM      1  C   UNL d   1     -41.289-121.963 -52.425  0.00  0.00     0.108 A 
ATOM      2  C   UNL d   1     -41.178-122.441 -50.835  0.00  0.00     0.161 A 
ATOM      3  C   UNL d   1     -41.288-121.389 -51.813  0.00  0.00     0.064 A 
ATOM      4  C   UNL d   1     -41.233-121.631 -51.021  0.00  0.00     0.222 A 
ATOM      5  C   UNL d   1     -41.344-121.729 -53.206  0.00  0.00     0.079 A 
ATOM      6  O   UNL d   1     -41.234-122.771 -52.236  0.00  0.00    -0.305 OA
ATOM      7  C   UNL d   1     -41.178-123.009 -51.441  0.00  0.00     0.126 A 
ATOM      8  C   UNL d   1     -41.344-120.593 -52.015  0.00  0.00     0.009 A 
ATOM      9  C   UNL d   1     -41.399-120.933 -53.401  0.00  0.00     0.199 A 
ATOM     10  O   UNL d   1     -41.232-121.065 -50.418  0.00  0.00    -0.284 OA
ATOM     11  C   UNL d   1     -41.398-120.365 -52.802  0.00  0.00     0.042 A 
ATOM     12  O   UNL d   1     -41.454-120.701 -54.191  0.00  0.00    -0.286 OA
ATOM     13  C   UNL d   1     -41.123-123.816 -51.257  0.00  0.00     0.029 C 
ENDROOT
BRANCH   2  14
ATOM     14  O   UNL d   1     -41.123-122.673 -50.045  0.00  0.00    -0.302 OA
BRANCH  14  15
ATOM     15  C   UNL d   1     -41.803-122.836 -49.606  0.00  0.00     0.102 A 
ATOM     16  C   UNL d   1     -41.809-122.702 -48.798  0.00  0.00     0.049 A 
ATOM     17  C   UNL d   1     -42.491-122.867 -48.360  0.00  0.00     0.096 A 
ATOM     18  C   UNL d   1     -43.166-123.167 -48.737  0.00  0.00     0.024 A 
ATOM     19  C   UNL d   1     -43.151-123.300 -49.555  0.00  0.00     0.004 A 
ATOM     20  C   UNL d   1     -42.471-123.135 -49.986  0.00  0.00     0.025 A 
BRANCH  17  21
ATOM     21  O   UNL d   1     -42.497-122.732 -47.553  0.00  0.00    -0.328 OA
ATOM     22  C   UNL d   1     -42.201-123.303 -47.032  0.00  0.00     0.181 C 
ENDBRANCH  17  21
ENDBRANCH  14  15
ENDBRANCH   2  14
BRANCH   5  23
ATOM     23  C   UNL d   1     -41.344-122.289 -53.797  0.00  0.00     0.085 C 
BRANCH  23  24
ATOM     24  N   UNL d   1     -41.838-122.308 -54.445  0.00  0.00    -0.302 N 
ATOM     25  C   UNL d   1     -42.651-122.340 -54.428  0.00  0.00     0.080 A 
ATOM     26  C   UNL d   1     -42.914-122.350 -55.188  0.00  0.00     0.021 A 
ATOM     27  C   UNL d   1     -42.284-122.326 -55.674  0.00  0.00     0.021 A 
ATOM     28  C   UNL d   1     -41.605-122.299 -55.213  0.00  0.00     0.080 A 
ENDBRANCH  23  24
ENDBRANCH   5  23
TORSDOF 5
ENDMDL
