MODEL 1
REMARK VINA RESULT:      -2.8      0.000      0.000
REMARK  1 active torsions:
REMARK  status: ('A' for Active; 'I' for Inactive)
REMARK    1  A    between atoms: C_8  and  C_3 
ROOT
ATOM      1  N   UNL d   1      31.951  21.669 -20.905  0.00  0.00    -0.145 NA
ATOM      2  N   UNL d   1      31.776  22.371 -20.490  0.00  0.00    -0.106 NA
ATOM      3  C   UNL d   1      32.681  21.583 -21.270  0.00  0.00     0.103 A 
ATOM      4  C   UNL d   1      32.334  22.975 -20.446  0.00  0.00     0.297 A 
ATOM      5  C   UNL d   1      33.241  22.197 -21.222  0.00  0.00     0.026 A 
ATOM      6  C   UNL d   1      33.067  22.879 -20.816  0.00  0.00     0.066 A 
ATOM      7  O   UNL d   1      32.159  23.661 -20.038  0.00  0.00    -0.264 OA
ENDROOT
BRANCH   3   8
ATOM      8  C   UNL d   1      32.867  20.903 -21.680  0.00  0.00     0.019 A 
ATOM      9  C   UNL d   1      32.926  20.939 -22.509  0.00  0.00     0.002 A 
ATOM     10  C   UNL d   1      33.114  20.252 -22.934  0.00  0.00     0.000 A 
ATOM     11  C   UNL d   1      33.241  19.539 -22.531  0.00  0.00     0.000 A 
ATOM     12  C   UNL d   1      33.181  19.508 -21.711  0.00  0.00     0.000 A 
ATOM     13  C   UNL d   1      32.994  20.193 -21.291  0.00  0.00     0.002 A 
ENDBRANCH   3   8
TORSDOF 1
ENDMDL
MODEL 2
REMARK VINA RESULT:      -2.7      5.736      6.631
REMARK  1 active torsions:
REMARK  status: ('A' for Active; 'I' for Inactive)
REMARK    1  A    between atoms: C_8  and  C_3 
ROOT
ATOM      1  N   UNL d   1      29.880  16.255 -24.262  0.00  0.00    -0.145 NA
ATOM      2  N   UNL d   1      29.053  16.147 -24.246  0.00  0.00    -0.106 NA
ATOM      3  C   UNL d   1      30.337  15.994 -23.632  0.00  0.00     0.103 A 
ATOM      4  C   UNL d   1      28.697  15.779 -23.601  0.00  0.00     0.297 A 
ATOM      5  C   UNL d   1      29.971  15.624 -22.983  0.00  0.00     0.026 A 
ATOM      6  C   UNL d   1      29.165  15.520 -22.971  0.00  0.00     0.066 A 
ATOM      7  O   UNL d   1      27.887  15.675 -23.589  0.00  0.00    -0.264 OA
ENDROOT
BRANCH   3   8
ATOM      8  C   UNL d   1      31.147  16.093 -23.633  0.00  0.00     0.019 A 
ATOM      9  C   UNL d   1      31.456  16.862 -23.562  0.00  0.00     0.002 A 
ATOM     10  C   UNL d   1      32.278  16.971 -23.562  0.00  0.00     0.000 A 
ATOM     11  C   UNL d   1      32.782  16.318 -23.632  0.00  0.00     0.000 A 
ATOM     12  C   UNL d   1      32.471  15.558 -23.702  0.00  0.00     0.000 A 
ATOM     13  C   UNL d   1      31.653  15.453 -23.701  0.00  0.00     0.002 A 
ENDBRANCH   3   8
TORSDOF 1
ENDMDL
MODEL 3
REMARK VINA RESULT:      -2.7      2.415      3.181
REMARK  1 active torsions:
REMARK  status: ('A' for Active; 'I' for Inactive)
REMARK    1  A    between atoms: C_8  and  C_3 
ROOT
ATOM      1  N   UNL d   1      33.173  22.430 -18.614  0.00  0.00    -0.145 NA
ATOM      2  N   UNL d   1      33.241  22.463 -17.783  0.00  0.00    -0.106 NA
ATOM      3  C   UNL d   1      32.787  23.033 -19.015  0.00  0.00     0.103 A 
ATOM      4  C   UNL d   1      32.922  23.099 -17.368  0.00  0.00     0.297 A 
ATOM      5  C   UNL d   1      32.467  23.673 -18.590  0.00  0.00     0.026 A 
ATOM      6  C   UNL d   1      32.535  23.701 -17.781  0.00  0.00     0.066 A 
ATOM      7  O   UNL d   1      32.991  23.128 -16.554  0.00  0.00    -0.264 OA
ENDROOT
BRANCH   3   8
ATOM      8  C   UNL d   1      32.713  23.014 -19.828  0.00  0.00     0.019 A 
ATOM      9  C   UNL d   1      33.167  23.541 -20.283  0.00  0.00     0.002 A 
ATOM     10  C   UNL d   1      33.098  23.529 -21.109  0.00  0.00     0.000 A 
ATOM     11  C   UNL d   1      32.579  22.995 -21.472  0.00  0.00     0.000 A 
ATOM     12  C   UNL d   1      32.131  22.475 -21.018  0.00  0.00     0.000 A 
ATOM     13  C   UNL d   1      32.203  22.490 -20.196  0.00  0.00     0.002 A 
ENDBRANCH   3   8
TORSDOF 1
ENDMDL
MODEL 4
REMARK VINA RESULT:      -2.6      6.087      6.807
REMARK  1 active torsions:
REMARK  status: ('A' for Active; 'I' for Inactive)
REMARK    1  A    between atoms: C_8  and  C_3 
ROOT
ATOM      1  N   UNL d   1      31.003  15.599 -24.616  0.00  0.00    -0.145 NA
ATOM      2  N   UNL d   1      31.817  15.543 -24.788  0.00  0.00    -0.106 NA
ATOM      3  C   UNL d   1      30.747  16.093 -24.013  0.00  0.00     0.103 A 
ATOM      4  C   UNL d   1      32.362  15.983 -24.353  0.00  0.00     0.297 A 
ATOM      5  C   UNL d   1      31.302  16.534 -23.578  0.00  0.00     0.026 A 
ATOM      6  C   UNL d   1      32.094  16.478 -23.748  0.00  0.00     0.066 A 
ATOM      7  O   UNL d   1      33.159  15.926 -24.524  0.00  0.00    -0.264 OA
ENDROOT
BRANCH   3   8
ATOM      8  C   UNL d   1      29.954  16.157 -23.833  0.00  0.00     0.019 A 
ATOM      9  C   UNL d   1      29.500  16.731 -24.228  0.00  0.00     0.002 A 
ATOM     10  C   UNL d   1      28.693  16.804 -24.052  0.00  0.00     0.000 A 
ATOM     11  C   UNL d   1      28.347  16.307 -23.487  0.00  0.00     0.000 A 
ATOM     12  C   UNL d   1      28.800  15.740 -23.098  0.00  0.00     0.000 A 
ATOM     13  C   UNL d   1      29.603  15.671 -23.276  0.00  0.00     0.002 A 
ENDBRANCH   3   8
TORSDOF 1
ENDMDL
MODEL 5
REMARK VINA RESULT:      -2.5      4.616      5.708
REMARK  1 active torsions:
REMARK  status: ('A' for Active; 'I' for Inactive)
REMARK    1  A    between atoms: C_8  and  C_3 
ROOT
ATOM      1  N   UNL d   1      31.588  16.449 -23.597  0.00  0.00    -0.145 NA
ATOM      2  N   UNL d   1      30.980  15.878 -23.600  0.00  0.00    -0.106 NA
ATOM      3  C   UNL d   1      31.471  17.171 -23.968  0.00  0.00     0.103 A 
ATOM      4  C   UNL d   1      30.265  16.039 -23.976  0.00  0.00     0.297 A 
ATOM      5  C   UNL d   1      30.746  17.327 -24.346  0.00  0.00     0.026 A 
ATOM      6  C   UNL d   1      30.156  16.769 -24.347  0.00  0.00     0.066 A 
ATOM      7  O   UNL d   1      29.671  15.477 -23.977  0.00  0.00    -0.264 OA
ENDROOT
BRANCH   3   8
ATOM      8  C   UNL d   1      32.057  17.739 -23.973  0.00  0.00     0.019 A 
ATOM      9  C   UNL d   1      32.341  18.027 -23.247  0.00  0.00     0.002 A 
ATOM     10  C   UNL d   1      32.936  18.605 -23.242  0.00  0.00     0.000 A 
ATOM     11  C   UNL d   1      33.241  18.888 -23.958  0.00  0.00     0.000 A 
ATOM     12  C   UNL d   1      32.957  18.600 -24.675  0.00  0.00     0.000 A 
ATOM     13  C   UNL d   1      32.365  18.026 -24.676  0.00  0.00     0.002 A 
ENDBRANCH   3   8
TORSDOF 1
ENDMDL
