MODEL 1
REMARK VINA RESULT:      -9.4      0.000      0.000
REMARK  4 active torsions:
REMARK  status: ('A' for Active; 'I' for Inactive)
REMARK    1  A    between atoms: C_2  and  C_1 
REMARK    2  A    between atoms: C_16  and  C_4 
REMARK    3  A    between atoms: C_28  and  C_15 
REMARK    4  A    between atoms: N_17  and  C_16 
ROOT
ATOM      1  C   UNL d   1      50.997  34.038  52.813  0.00  0.00     0.098 A 
ATOM      2  C   UNL d   1      53.151  32.843  53.117  0.00  0.00     0.079 A 
ATOM      3  C   UNL d   1      52.287  33.933  53.438  0.00  0.00     0.062 A 
ATOM      4  C   UNL d   1      51.574  34.335  53.342  0.00  0.00     0.202 A 
ATOM      5  C   UNL d   1      52.445  33.232  53.016  0.00  0.00     0.108 A 
ATOM      6  C   UNL d   1      51.154  33.336  52.390  0.00  0.00     0.129 A 
ATOM      7  O   UNL d   1      51.877  32.930  52.489  0.00  0.00    -0.305 OA
ATOM      8  C   UNL d   1      53.716  33.137  53.638  0.00  0.00     0.199 A 
ATOM      9  C   UNL d   1      52.851  34.231  53.961  0.00  0.00     0.008 A 
ATOM     10  C   UNL d   1      53.560  33.829  54.055  0.00  0.00     0.039 A 
ATOM     11  O   UNL d   1      51.424  35.023  53.759  0.00  0.00    -0.286 OA
ATOM     12  O   UNL d   1      54.430  32.748  53.744  0.00  0.00    -0.286 OA
ENDROOT
BRANCH   1  13
ATOM     13  C   UNL d   1      50.281  34.436  52.712  0.00  0.00     0.153 A 
ATOM     14  N   UNL d   1      49.854  34.826  53.307  0.00  0.00    -0.227 NA
ATOM     15  C   UNL d   1      49.173  35.145  52.957  0.00  0.00     0.099 A 
ATOM     16  C   UNL d   1      48.558  35.581  53.275  0.00  0.00     0.021 A 
ATOM     17  C   UNL d   1      49.180  34.956  52.164  0.00  0.00     0.083 A 
ATOM     18  C   UNL d   1      47.940  35.832  52.790  0.00  0.00     0.002 A 
ATOM     19  C   UNL d   1      47.944  35.644  51.993  0.00  0.00     0.002 A 
ATOM     20  C   UNL d   1      48.573  35.199  51.673  0.00  0.00     0.019 A 
ATOM     21  N   UNL d   1      49.871  34.512  52.004  0.00  0.00    -0.288 N 
ATOM     22  C   UNL d   1      50.106  34.204  51.275  0.00  0.00     0.101 C 
ENDBRANCH   1  13
BRANCH  10  23
ATOM     23  C   UNL d   1      54.133  34.128  54.583  0.00  0.00     0.003 C 
ATOM     24  C   UNL d   1      53.912  34.392  55.335  0.00  0.00     0.000 C 
ENDBRANCH  10  23
BRANCH   2  25
ATOM     25  C   UNL d   1      53.307  32.150  52.700  0.00  0.00     0.086 C 
BRANCH  25  26
ATOM     26  N   UNL d   1      53.232  31.424  53.068  0.00  0.00    -0.300 N 
ATOM     27  C   UNL d   1      53.807  31.172  53.615  0.00  0.00     0.100 A 
ATOM     28  C   UNL d   1      53.720  30.425  53.985  0.00  0.00     0.100 A 
ATOM     29  N   UNL d   1      53.074  29.946  53.813  0.00  0.00    -0.299 N 
ATOM     30  C   UNL d   1      52.503  30.207  53.265  0.00  0.00     0.100 A 
ATOM     31  C   UNL d   1      52.991  29.209  54.182  0.00  0.00     0.100 C 
ATOM     32  C   UNL d   1      52.582  30.941  52.896  0.00  0.00     0.100 A 
ENDBRANCH  25  26
ENDBRANCH   2  25
TORSDOF 4
ENDMDL
MODEL 2
REMARK VINA RESULT:      -8.1      1.113      2.553
REMARK  4 active torsions:
REMARK  status: ('A' for Active; 'I' for Inactive)
REMARK    1  A    between atoms: C_2  and  C_1 
REMARK    2  A    between atoms: C_16  and  C_4 
REMARK    3  A    between atoms: C_28  and  C_15 
REMARK    4  A    between atoms: N_17  and  C_16 
ROOT
ATOM      1  C   UNL d   1      50.985  33.930  52.596  0.00  0.00     0.098 A 
ATOM      2  C   UNL d   1      53.160  32.858  53.131  0.00  0.00     0.079 A 
ATOM      3  C   UNL d   1      51.753  32.755  52.910  0.00  0.00     0.062 A 
ATOM      4  C   UNL d   1      51.028  33.104  52.733  0.00  0.00     0.202 A 
ATOM      5  C   UNL d   1      52.448  33.211  52.955  0.00  0.00     0.108 A 
ATOM      6  C   UNL d   1      51.681  34.386  52.641  0.00  0.00     0.129 A 
ATOM      7  O   UNL d   1      52.415  34.031  52.821  0.00  0.00    -0.305 OA
ATOM      8  C   UNL d   1      53.197  32.047  53.265  0.00  0.00     0.199 A 
ATOM      9  C   UNL d   1      51.787  31.942  53.044  0.00  0.00     0.008 A 
ATOM     10  C   UNL d   1      52.510  31.597  53.220  0.00  0.00     0.039 A 
ATOM     11  O   UNL d   1      50.346  32.652  52.690  0.00  0.00    -0.286 OA
ATOM     12  O   UNL d   1      53.912  31.686  53.442  0.00  0.00    -0.286 OA
ENDROOT
BRANCH   1  13
ATOM     13  C   UNL d   1      50.262  34.285  52.418  0.00  0.00     0.153 A 
ATOM     14  N   UNL d   1      49.848  34.215  51.703  0.00  0.00    -0.227 NA
ATOM     15  C   UNL d   1      49.154  34.662  51.770  0.00  0.00     0.099 A 
ATOM     16  C   UNL d   1      48.544  34.793  51.241  0.00  0.00     0.021 A 
ATOM     17  C   UNL d   1      49.138  35.001  52.511  0.00  0.00     0.083 A 
ATOM     18  C   UNL d   1      47.908  35.272  51.458  0.00  0.00     0.002 A 
ATOM     19  C   UNL d   1      47.890  35.613  52.203  0.00  0.00     0.002 A 
ATOM     20  C   UNL d   1      48.514  35.477  52.739  0.00  0.00     0.019 A 
ATOM     21  N   UNL d   1      49.830  34.768  52.923  0.00  0.00    -0.288 N 
ATOM     22  C   UNL d   1      50.045  34.981  53.691  0.00  0.00     0.101 C 
ENDBRANCH   1  13
BRANCH  10  23
ATOM     23  C   UNL d   1      52.549  30.775  53.356  0.00  0.00     0.003 C 
ATOM     24  C   UNL d   1      52.612  30.247  52.721  0.00  0.00     0.000 C 
ENDBRANCH  10  23
BRANCH   2  25
ATOM     25  C   UNL d   1      53.847  33.309  53.175  0.00  0.00     0.086 C 
BRANCH  25  26
ATOM     26  N   UNL d   1      54.182  33.475  53.902  0.00  0.00    -0.300 N 
ATOM     27  C   UNL d   1      53.756  33.913  54.468  0.00  0.00     0.100 A 
ATOM     28  C   UNL d   1      54.110  34.077  55.210  0.00  0.00     0.100 A 
ATOM     29  N   UNL d   1      54.869  33.808  55.379  0.00  0.00    -0.299 N 
ATOM     30  C   UNL d   1      55.288  33.371  54.807  0.00  0.00     0.100 A 
ATOM     31  C   UNL d   1      55.215  33.973  56.114  0.00  0.00     0.100 C 
ATOM     32  C   UNL d   1      54.945  33.205  54.074  0.00  0.00     0.100 A 
ENDBRANCH  25  26
ENDBRANCH   2  25
TORSDOF 4
ENDMDL
MODEL 3
REMARK VINA RESULT:      -7.5      0.902      4.935
REMARK  4 active torsions:
REMARK  status: ('A' for Active; 'I' for Inactive)
REMARK    1  A    between atoms: C_2  and  C_1 
REMARK    2  A    between atoms: C_16  and  C_4 
REMARK    3  A    between atoms: C_28  and  C_15 
REMARK    4  A    between atoms: N_17  and  C_16 
ROOT
ATOM      1  C   UNL d   1      52.934  31.691  53.631  0.00  0.00     0.098 A 
ATOM      2  C   UNL d   1      52.496  34.011  52.864  0.00  0.00     0.079 A 
ATOM      3  C   UNL d   1      53.072  33.111  53.811  0.00  0.00     0.062 A 
ATOM      4  C   UNL d   1      53.221  32.343  54.071  0.00  0.00     0.202 A 
ATOM      5  C   UNL d   1      52.638  33.251  53.114  0.00  0.00     0.108 A 
ATOM      6  C   UNL d   1      52.499  31.831  52.933  0.00  0.00     0.129 A 
ATOM      7  O   UNL d   1      52.349  32.609  52.671  0.00  0.00    -0.305 OA
ATOM      8  C   UNL d   1      52.780  34.649  53.299  0.00  0.00     0.199 A 
ATOM      9  C   UNL d   1      53.358  33.749  54.249  0.00  0.00     0.008 A 
ATOM     10  C   UNL d   1      53.209  34.512  53.988  0.00  0.00     0.039 A 
ATOM     11  O   UNL d   1      53.648  32.211  54.757  0.00  0.00    -0.286 OA
ATOM     12  O   UNL d   1      52.639  35.419  53.052  0.00  0.00    -0.286 OA
ENDROOT
BRANCH   1  13
ATOM     13  C   UNL d   1      53.079  30.920  53.887  0.00  0.00     0.153 A 
ATOM     14  N   UNL d   1      53.018  30.647  54.667  0.00  0.00    -0.227 NA
ATOM     15  C   UNL d   1      53.214  29.841  54.667  0.00  0.00     0.099 A 
ATOM     16  C   UNL d   1      53.248  29.295  55.275  0.00  0.00     0.021 A 
ATOM     17  C   UNL d   1      53.393  29.622  53.903  0.00  0.00     0.083 A 
ATOM     18  C   UNL d   1      53.464  28.515  55.113  0.00  0.00     0.002 A 
ATOM     19  C   UNL d   1      53.644  28.292  54.346  0.00  0.00     0.002 A 
ATOM     20  C   UNL d   1      53.608  28.853  53.729  0.00  0.00     0.019 A 
ATOM     21  N   UNL d   1      53.310  30.294  53.409  0.00  0.00    -0.288 N 
ATOM     22  C   UNL d   1      53.435  30.328  52.593  0.00  0.00     0.101 C 
ENDBRANCH   1  13
BRANCH  10  23
ATOM     23  C   UNL d   1      53.497  35.159  54.428  0.00  0.00     0.003 C 
ATOM     24  C   UNL d   1      53.322  35.228  55.234  0.00  0.00     0.000 C 
ENDBRANCH  10  23
BRANCH   2  25
ATOM     25  C   UNL d   1      52.067  34.149  52.176  0.00  0.00     0.086 C 
BRANCH  25  26
ATOM     26  N   UNL d   1      51.261  34.280  52.214  0.00  0.00    -0.300 N 
ATOM     27  C   UNL d   1      50.912  34.530  52.928  0.00  0.00     0.100 A 
ATOM     28  C   UNL d   1      50.085  34.661  52.954  0.00  0.00     0.100 A 
ATOM     29  N   UNL d   1      49.621  34.545  52.284  0.00  0.00    -0.299 N 
ATOM     30  C   UNL d   1      49.979  34.296  51.574  0.00  0.00     0.100 A 
ATOM     31  C   UNL d   1      48.803  34.676  52.315  0.00  0.00     0.100 C 
ATOM     32  C   UNL d   1      50.794  34.165  51.541  0.00  0.00     0.100 A 
ENDBRANCH  25  26
ENDBRANCH   2  25
TORSDOF 4
ENDMDL
MODEL 4
REMARK VINA RESULT:      -6.9      1.835      6.025
REMARK  4 active torsions:
REMARK  status: ('A' for Active; 'I' for Inactive)
REMARK    1  A    between atoms: C_2  and  C_1 
REMARK    2  A    between atoms: C_16  and  C_4 
REMARK    3  A    between atoms: C_28  and  C_15 
REMARK    4  A    between atoms: N_17  and  C_16 
ROOT
ATOM      1  C   UNL d   1      50.242  34.398  52.890  0.00  0.00     0.098 A 
ATOM      2  C   UNL d   1      48.299  35.925  52.664  0.00  0.00     0.079 A 
ATOM      3  C   UNL d   1      49.120  34.884  52.134  0.00  0.00     0.062 A 
ATOM      4  C   UNL d   1      49.764  34.374  52.203  0.00  0.00     0.202 A 
ATOM      5  C   UNL d   1      48.936  35.426  52.740  0.00  0.00     0.108 A 
ATOM      6  C   UNL d   1      50.058  34.940  53.496  0.00  0.00     0.129 A 
ATOM      7  O   UNL d   1      49.406  35.456  53.425  0.00  0.00    -0.305 OA
ATOM      8  C   UNL d   1      47.831  35.899  51.988  0.00  0.00     0.199 A 
ATOM      9  C   UNL d   1      48.653  34.856  51.456  0.00  0.00     0.008 A 
ATOM     10  C   UNL d   1      48.013  35.364  51.390  0.00  0.00     0.039 A 
ATOM     11  O   UNL d   1      49.941  33.843  51.605  0.00  0.00    -0.286 OA
ATOM     12  O   UNL d   1      47.187  36.401  51.906  0.00  0.00    -0.286 OA
ENDROOT
BRANCH   1  13
ATOM     13  C   UNL d   1      50.888  33.889  52.964  0.00  0.00     0.153 A 
ATOM     14  N   UNL d   1      50.854  33.061  52.995  0.00  0.00    -0.227 NA
ATOM     15  C   UNL d   1      51.631  32.781  53.071  0.00  0.00     0.099 A 
ATOM     16  C   UNL d   1      51.927  32.021  53.126  0.00  0.00     0.021 A 
ATOM     17  C   UNL d   1      52.134  33.423  53.087  0.00  0.00     0.083 A 
ATOM     18  C   UNL d   1      52.740  31.901  53.199  0.00  0.00     0.002 A 
ATOM     19  C   UNL d   1      53.247  32.544  53.215  0.00  0.00     0.002 A 
ATOM     20  C   UNL d   1      52.941  33.318  53.159  0.00  0.00     0.019 A 
ATOM     21  N   UNL d   1      51.674  34.120  53.021  0.00  0.00    -0.288 N 
ATOM     22  C   UNL d   1      51.951  34.898  53.013  0.00  0.00     0.101 C 
ENDBRANCH   1  13
BRANCH  10  23
ATOM     23  C   UNL d   1      47.538  35.338  50.705  0.00  0.00     0.003 C 
ATOM     24  C   UNL d   1      46.873  34.847  50.673  0.00  0.00     0.000 C 
ENDBRANCH  10  23
BRANCH   2  25
ATOM     25  C   UNL d   1      48.117  36.460  53.262  0.00  0.00     0.086 C 
BRANCH  25  26
ATOM     26  N   UNL d   1      47.455  36.346  53.728  0.00  0.00    -0.300 N 
ATOM     27  C   UNL d   1      46.733  36.708  53.524  0.00  0.00     0.100 A 
ATOM     28  C   UNL d   1      46.062  36.583  54.009  0.00  0.00     0.100 A 
ATOM     29  N   UNL d   1      46.112  36.108  54.679  0.00  0.00    -0.299 N 
ATOM     30  C   UNL d   1      46.838  35.749  54.876  0.00  0.00     0.100 A 
ATOM     31  C   UNL d   1      45.445  35.987  55.156  0.00  0.00     0.100 C 
ATOM     32  C   UNL d   1      47.504  35.868  54.402  0.00  0.00     0.100 A 
ENDBRANCH  25  26
ENDBRANCH   2  25
TORSDOF 4
ENDMDL
