MODEL 1
REMARK VINA RESULT:      37.1      0.000      0.000
REMARK  5 active torsions:
REMARK  status: ('A' for Active; 'I' for Inactive)
REMARK    1  A    between atoms: N_2  and  C_7 
REMARK    2  A    between atoms: N_8  and  C_3 
REMARK    3  A    between atoms: C_11  and  C_4 
REMARK    4  A    between atoms: N_9  and  N_8 
REMARK    5  A    between atoms: C_17  and  N_9 
ROOT
ATOM      1  N   UNL d   1     -51.682  25.448  33.516  0.00  0.00    -0.219 NA
ATOM      2  C   UNL d   1     -51.610  24.622  33.472  0.00  0.00     0.215 A 
ATOM      3  C   UNL d   1     -50.912  25.773  33.411  0.00  0.00     0.090 A 
ATOM      4  S   UNL d   1     -50.827  24.446  33.345  0.00  0.00    -0.045 SA
ATOM      5  C   UNL d   1     -50.394  25.153  33.307  0.00  0.00     0.058 A 
ENDROOT
BRANCH   3   6
ATOM      6  C   UNL d   1     -50.758  26.593  33.419  0.00  0.00     0.018 A 
ATOM      7  C   UNL d   1     -51.370  27.127  33.307  0.00  0.00     0.003 A 
ATOM      8  C   UNL d   1     -51.231  27.921  33.314  0.00  0.00     0.024 A 
ATOM      9  C   UNL d   1     -50.458  28.201  33.436  0.00  0.00     0.127 A 
ATOM     10  C   UNL d   1     -49.850  27.677  33.548  0.00  0.00     0.024 A 
ATOM     11  C   UNL d   1     -50.000  26.846  33.540  0.00  0.00     0.003 A 
BRANCH   9  12
ATOM     12  N   UNL d   1     -50.301  29.000  33.446  0.00  0.00    -0.114 N 
ATOM     13  O   UNL d   1     -50.868  29.587  33.525  0.00  0.00    -0.532 OA
ATOM     14  O   UNL d   1     -49.558  29.302  33.377  0.00  0.00    -0.532 OA
ENDBRANCH   9  12
ENDBRANCH   3   6
BRANCH   2  15
ATOM     15  N   UNL d   1     -52.215  24.042  33.542  0.00  0.00    -0.122 NA
BRANCH  15  16
ATOM     16  N   UNL d   1     -52.892  24.226  33.986  0.00  0.00    -0.146 NA
BRANCH  16  17
ATOM     17  C   UNL d   1     -53.626  23.883  33.760  0.00  0.00     0.103 C 
ATOM     18  C   UNL d   1     -53.621  23.189  33.307  0.00  0.00     0.022 C 
ATOM     19  C   UNL d   1     -54.338  24.234  33.986  0.00  0.00     0.022 C 
ENDBRANCH  16  17
ENDBRANCH  15  16
ENDBRANCH   2  15
TORSDOF 5
ENDMDL
