MODEL 1
REMARK VINA RESULT:      -3.7      0.000      0.000
REMARK  8 active torsions:
REMARK  status: ('A' for Active; 'I' for Inactive)
REMARK    1  A    between atoms: C_8  and  N_3 
REMARK    2  A    between atoms: S_7  and  C_5 
REMARK    3  A    between atoms: C_17  and  S_7 
REMARK    4  A    between atoms: C_20  and  C_8 
REMARK    5  A    between atoms: C_9  and  C_17 
REMARK       I    between atoms: N_12  and  C_9 
REMARK    6  A    between atoms: C_11  and  C_13 
REMARK    7  A    between atoms: C_13  and  N_12 
REMARK    8  A    between atoms: O_21  and  C_15 
ROOT
ATOM      1  N   UNL d   1      57.964  -1.198  30.358  0.00  0.00    -0.185 NA
ATOM      2  C   UNL d   1      58.259  -1.677  29.752  0.00  0.00     0.354 A 
ATOM      3  N   UNL d   1      58.826  -1.377  29.229  0.00  0.00    -0.258 N 
ATOM      4  C   UNL d   1      58.796  -0.136  29.918  0.00  0.00     0.040 A 
ATOM      5  C   UNL d   1      58.233  -0.428  30.441  0.00  0.00     0.117 A 
ATOM      6  C   UNL d   1      59.095  -0.607  29.312  0.00  0.00     0.070 A 
ATOM      7  O   UNL d   1      57.985  -2.464  29.667  0.00  0.00    -0.244 OA
ATOM      8  C   UNL d   1      59.171   0.596  29.853  0.00  0.00     0.004 A 
ATOM      9  C   UNL d   1      59.645  -0.185  28.874  0.00  0.00     0.018 A 
ATOM     10  C   UNL d   1      59.690   0.573  29.219  0.00  0.00     0.002 A 
ENDROOT
BRANCH   5  11
ATOM     11  S   UNL d   1      57.938   0.051  31.047  0.00  0.00    -0.062 SA
BRANCH  11  12
ATOM     12  C   UNL d   1      57.337  -0.222  31.538  0.00  0.00     0.099 C 
BRANCH  12  13
ATOM     13  C   UNL d   1      57.271   0.075  32.309  0.00  0.00     0.286 C 
ATOM     14  N   UNL d   1      56.592  -0.048  32.746  0.00  0.00    -0.206 NA
ATOM     15  O   UNL d   1      57.904   0.505  32.643  0.00  0.00    -0.265 OA
BRANCH  14  16
ATOM     16  C   UNL d   1      56.527   0.249  33.516  0.00  0.00     0.104 C 
BRANCH  16  17
ATOM     17  C   UNL d   1      55.790   0.357  33.857  0.00  0.00     0.042 A 
ATOM     18  C   UNL d   1      55.725   0.573  34.654  0.00  0.00     0.096 A 
ATOM     19  C   UNL d   1      54.982   0.682  34.995  0.00  0.00     0.024 A 
ATOM     20  C   UNL d   1      54.300   0.577  34.550  0.00  0.00     0.002 A 
ATOM     21  C   UNL d   1      54.353   0.360  33.752  0.00  0.00     0.000 A 
ATOM     22  C   UNL d   1      55.101   0.249  33.399  0.00  0.00     0.004 A 
BRANCH  18  23
ATOM     23  O   UNL d   1      56.410   0.682  35.112  0.00  0.00    -0.328 OA
ATOM     24  C   UNL d   1      56.346   0.680  35.939  0.00  0.00     0.181 C 
ENDBRANCH  18  23
ENDBRANCH  16  17
ENDBRANCH  14  16
ENDBRANCH  12  13
ENDBRANCH  11  12
ENDBRANCH   5  11
BRANCH   3  25
ATOM     25  C   UNL d   1      59.121  -1.856  28.623  0.00  0.00     0.085 C 
BRANCH  25  26
ATOM     26  C   UNL d   1      59.732  -2.392  28.782  0.00  0.00     0.021 A 
ATOM     27  C   UNL d   1      59.553  -3.142  29.061  0.00  0.00     0.022 A 
ATOM     28  C   UNL d   1      60.169  -3.671  29.217  0.00  0.00     0.099 A 
ATOM     29  N   UNL d   1      60.954  -3.451  29.096  0.00  0.00    -0.242 NA
ATOM     30  C   UNL d   1      61.124  -2.702  28.818  0.00  0.00     0.099 A 
ATOM     31  C   UNL d   1      60.508  -2.158  28.655  0.00  0.00     0.022 A 
ENDBRANCH  25  26
ENDBRANCH   3  25
TORSDOF 8
ENDMDL
