MODEL 1
REMARK VINA RESULT:      24.6      0.000      0.000
REMARK  3 active torsions:
REMARK  status: ('A' for Active; 'I' for Inactive)
REMARK    1  A    between atoms: C_6  and  C_1 
REMARK    2  A    between atoms: C_7  and  C_2 
REMARK    3  A    between atoms: O_14  and  C_12 
ROOT
ATOM      1  C   UNL d   1      14.056  13.207  -2.738  0.00  0.00     0.084 A 
ATOM      2  C   UNL d   1      13.780  12.529  -3.118  0.00  0.00     0.105 A 
ATOM      3  C   UNL d   1      14.348  12.982  -2.004  0.00  0.00     0.031 A 
ATOM      4  O   UNL d   1      13.903  11.884  -2.617  0.00  0.00    -0.307 OA
ATOM      5  C   UNL d   1      14.254  12.170  -1.929  0.00  0.00     0.100 A 
ATOM      6  C   UNL d   1      14.687  13.410  -1.392  0.00  0.00     0.026 A 
ATOM      7  C   UNL d   1      14.499  11.779  -1.243  0.00  0.00     0.027 A 
ATOM      8  C   UNL d   1      14.936  13.033  -0.701  0.00  0.00     0.094 A 
ATOM      9  C   UNL d   1      14.841  12.208  -0.626  0.00  0.00     0.026 A 
ENDROOT
BRANCH   2  10
ATOM     10  C   UNL d   1      13.440  12.503  -3.874  0.00  0.00     0.023 A 
ATOM     11  C   UNL d   1      13.108  13.188  -4.192  0.00  0.00     0.002 A 
ATOM     12  C   UNL d   1      12.773  13.167  -4.933  0.00  0.00     0.000 A 
ATOM     13  C   UNL d   1      12.769  12.460  -5.358  0.00  0.00     0.000 A 
ATOM     14  C   UNL d   1      13.105  11.779  -5.027  0.00  0.00     0.000 A 
ATOM     15  C   UNL d   1      13.434  11.800  -4.299  0.00  0.00     0.002 A 
ENDBRANCH   2  10
BRANCH   1  16
ATOM     16  C   UNL d   1      14.042  13.975  -3.039  0.00  0.00     0.299 C 
ATOM     17  O   UNL d   1      14.655  14.242  -3.511  0.00  0.00    -0.264 OA
ATOM     18  N   UNL d   1      13.420  14.477  -2.869  0.00  0.00    -0.102 N 
ENDBRANCH   1  16
BRANCH   8  19
ATOM     19  O   UNL d   1      15.276  13.461  -0.089  0.00  0.00    -0.328 OA
ATOM     20  C   UNL d   1      15.247  14.289  -0.101  0.00  0.00     0.181 C 
ENDBRANCH   8  19
TORSDOF 3
ENDMDL
MODEL 2
REMARK VINA RESULT:      25.3      1.068      3.514
REMARK  3 active torsions:
REMARK  status: ('A' for Active; 'I' for Inactive)
REMARK    1  A    between atoms: C_6  and  C_1 
REMARK    2  A    between atoms: C_7  and  C_2 
REMARK    3  A    between atoms: O_14  and  C_12 
ROOT
ATOM      1  C   UNL d   1      13.998  13.051  -2.559  0.00  0.00     0.084 A 
ATOM      2  C   UNL d   1      13.999  12.309  -2.198  0.00  0.00     0.105 A 
ATOM      3  C   UNL d   1      13.610  12.979  -3.280  0.00  0.00     0.031 A 
ATOM      4  O   UNL d   1      13.611  11.779  -2.699  0.00  0.00    -0.307 OA
ATOM      5  C   UNL d   1      13.373  12.199  -3.366  0.00  0.00     0.100 A 
ATOM      6  C   UNL d   1      13.442  13.523  -3.871  0.00  0.00     0.026 A 
ATOM      7  C   UNL d   1      12.965  11.954  -4.043  0.00  0.00     0.027 A 
ATOM      8  C   UNL d   1      13.036  13.293  -4.552  0.00  0.00     0.094 A 
ATOM      9  C   UNL d   1      12.795  12.499  -4.639  0.00  0.00     0.026 A 
ENDROOT
BRANCH   2  10
ATOM     10  C   UNL d   1      14.333  12.131  -1.461  0.00  0.00     0.023 A 
ATOM     11  C   UNL d   1      15.152  12.061  -1.394  0.00  0.00     0.002 A 
ATOM     12  C   UNL d   1      15.484  11.886  -0.672  0.00  0.00     0.000 A 
ATOM     13  C   UNL d   1      14.997  11.782  -0.015  0.00  0.00     0.000 A 
ATOM     14  C   UNL d   1      14.175  11.855  -0.096  0.00  0.00     0.000 A 
ATOM     15  C   UNL d   1      13.850  12.027  -0.805  0.00  0.00     0.002 A 
ENDBRANCH   2  10
BRANCH   1  16
ATOM     16  C   UNL d   1      14.326  13.744  -2.253  0.00  0.00     0.299 C 
ATOM     17  O   UNL d   1      14.997  14.065  -2.595  0.00  0.00    -0.264 OA
ATOM     18  N   UNL d   1      13.987  14.116  -1.609  0.00  0.00    -0.102 N 
ENDBRANCH   1  16
BRANCH   8  19
ATOM     19  O   UNL d   1      12.867  13.836  -5.143  0.00  0.00    -0.328 OA
ATOM     20  C   UNL d   1      12.796  14.640  -4.954  0.00  0.00     0.181 C 
ENDBRANCH   8  19
TORSDOF 3
ENDMDL
MODEL 3
REMARK VINA RESULT:      26.2      1.066      3.880
REMARK  3 active torsions:
REMARK  status: ('A' for Active; 'I' for Inactive)
REMARK    1  A    between atoms: C_6  and  C_1 
REMARK    2  A    between atoms: C_7  and  C_2 
REMARK    3  A    between atoms: O_14  and  C_12 
ROOT
ATOM      1  C   UNL d   1      14.161  12.872  -2.208  0.00  0.00     0.084 A 
ATOM      2  C   UNL d   1      14.375  13.653  -2.049  0.00  0.00     0.105 A 
ATOM      3  C   UNL d   1      13.789  12.858  -2.941  0.00  0.00     0.031 A 
ATOM      4  O   UNL d   1      14.134  14.121  -2.685  0.00  0.00    -0.307 OA
ATOM      5  C   UNL d   1      13.773  13.624  -3.234  0.00  0.00     0.100 A 
ATOM      6  C   UNL d   1      13.463  12.247  -3.381  0.00  0.00     0.026 A 
ATOM      7  C   UNL d   1      13.430  13.786  -3.969  0.00  0.00     0.027 A 
ATOM      8  C   UNL d   1      13.118  12.395  -4.116  0.00  0.00     0.094 A 
ATOM      9  C   UNL d   1      13.101  13.174  -4.413  0.00  0.00     0.026 A 
ENDROOT
BRANCH   2  10
ATOM     10  C   UNL d   1      14.765  13.917  -1.367  0.00  0.00     0.023 A 
ATOM     11  C   UNL d   1      14.961  14.716  -1.297  0.00  0.00     0.002 A 
ATOM     12  C   UNL d   1      15.343  14.979  -0.629  0.00  0.00     0.000 A 
ATOM     13  C   UNL d   1      15.530  14.445  -0.029  0.00  0.00     0.000 A 
ATOM     14  C   UNL d   1      15.327  13.646  -0.112  0.00  0.00     0.000 A 
ATOM     15  C   UNL d   1      14.952  13.387  -0.768  0.00  0.00     0.002 A 
ENDBRANCH   2  10
BRANCH   1  16
ATOM     16  C   UNL d   1      14.296  12.219  -1.721  0.00  0.00     0.299 C 
ATOM     17  O   UNL d   1      15.016  11.832  -1.744  0.00  0.00    -0.264 OA
ATOM     18  N   UNL d   1      13.714  11.954  -1.212  0.00  0.00    -0.102 N 
ENDBRANCH   1  16
BRANCH   8  19
ATOM     19  O   UNL d   1      12.791  11.784  -4.556  0.00  0.00    -0.328 OA
ATOM     20  C   UNL d   1      12.810  11.819  -5.384  0.00  0.00     0.181 C 
ENDBRANCH   8  19
TORSDOF 3
ENDMDL
