MODEL 1
REMARK VINA RESULT:      56.0      0.000      0.000
REMARK  4 active torsions:
REMARK  status: ('A' for Active; 'I' for Inactive)
REMARK    1  A    between atoms: C_4  and  C_1 
REMARK    2  A    between atoms: N_7  and  C_2 
REMARK       I    between atoms: N_8  and  C_4 
REMARK       I    between atoms: C_11  and  N_7 
REMARK    3  A    between atoms: C_13  and  N_8 
REMARK    4  A    between atoms: C_22  and  C_11 
ROOT
ATOM      1  C   UNL d   1      14.277  14.207  -1.376  0.00  0.00     0.175 A 
ATOM      2  C   UNL d   1      14.724  14.060  -0.761  0.00  0.00     0.114 A 
ATOM      3  O   UNL d   1      13.978  13.537  -1.617  0.00  0.00    -0.301 OA
ATOM      4  C   UNL d   1      14.701  13.300  -0.621  0.00  0.00     0.043 A 
ATOM      5  C   UNL d   1      14.239  12.975  -1.151  0.00  0.00     0.102 A 
ATOM      6  C   UNL d   1      15.036  12.863  -0.086  0.00  0.00     0.004 A 
ATOM      7  C   UNL d   1      14.114  12.218  -1.143  0.00  0.00     0.025 A 
ATOM      8  C   UNL d   1      14.911  12.099  -0.078  0.00  0.00     0.000 A 
ATOM      9  C   UNL d   1      14.451  11.780  -0.606  0.00  0.00     0.002 A 
ENDROOT
BRANCH   1  10
ATOM     10  C   UNL d   1      14.154  14.892  -1.691  0.00  0.00     0.303 C 
ATOM     11  N   UNL d   1      13.594  14.862  -3.079  0.00  0.00    -0.206 NA
ATOM     12  O   UNL d   1      14.282  15.582  -1.379  0.00  0.00    -0.263 OA
BRANCH  11  13
ATOM     13  C   UNL d   1      13.443  14.134  -3.447  0.00  0.00     0.087 A 
ATOM     14  C   UNL d   1      13.774  13.968  -4.191  0.00  0.00     0.046 A 
ATOM     15  C   UNL d   1      13.624  13.243  -4.557  0.00  0.00     0.124 A 
ATOM     16  O   UNL d   1      13.954  13.071  -5.303  0.00  0.00    -0.301 OA
ATOM     17  C   UNL d   1      13.138  12.667  -4.190  0.00  0.00     0.123 A 
ATOM     18  C   UNL d   1      13.803  12.345  -5.670  0.00  0.00     0.149 A 
ATOM     19  C   UNL d   1      13.322  11.781  -5.301  0.00  0.00     0.149 A 
ATOM     20  O   UNL d   1      12.985  11.950  -4.545  0.00  0.00    -0.301 OA
ATOM     21  C   UNL d   1      12.808  12.840  -3.444  0.00  0.00     0.028 A 
ATOM     22  C   UNL d   1      12.962  13.579  -3.070  0.00  0.00     0.021 A 
ENDBRANCH  11  13
ENDBRANCH   1  10
BRANCH   2  23
ATOM     23  N   UNL d   1      15.123  14.586  -0.360  0.00  0.00    -0.206 NA
ATOM     24  C   UNL d   1      15.947  14.645  -0.450  0.00  0.00     0.279 C 
ATOM     25  O   UNL d   1      16.347  14.133  -0.978  0.00  0.00    -0.265 OA
BRANCH  24  26
ATOM     26  C   UNL d   1      16.374  15.216  -0.014  0.00  0.00     0.062 C 
ATOM     27  C   UNL d   1      16.930  15.692  -0.395  0.00  0.00     0.005 C 
ENDBRANCH  24  26
ENDBRANCH   2  23
TORSDOF 4
ENDMDL
MODEL 2
REMARK VINA RESULT:      57.6      1.205      2.190
REMARK  4 active torsions:
REMARK  status: ('A' for Active; 'I' for Inactive)
REMARK    1  A    between atoms: C_4  and  C_1 
REMARK    2  A    between atoms: N_7  and  C_2 
REMARK       I    between atoms: N_8  and  C_4 
REMARK       I    between atoms: C_11  and  N_7 
REMARK    3  A    between atoms: C_13  and  N_8 
REMARK    4  A    between atoms: C_22  and  C_11 
ROOT
ATOM      1  C   UNL d   1      13.930  13.038  -0.764  0.00  0.00     0.175 A 
ATOM      2  C   UNL d   1      14.657  13.192  -0.546  0.00  0.00     0.114 A 
ATOM      3  O   UNL d   1      13.634  13.680  -1.075  0.00  0.00    -0.301 OA
ATOM      4  C   UNL d   1      14.812  13.929  -0.723  0.00  0.00     0.043 A 
ATOM      5  C   UNL d   1      14.178  14.232  -1.051  0.00  0.00     0.102 A 
ATOM      6  C   UNL d   1      15.439  14.361  -0.630  0.00  0.00     0.004 A 
ATOM      7  C   UNL d   1      14.175  14.963  -1.283  0.00  0.00     0.025 A 
ATOM      8  C   UNL d   1      15.437  15.099  -0.865  0.00  0.00     0.000 A 
ATOM      9  C   UNL d   1      14.806  15.397  -1.190  0.00  0.00     0.002 A 
ENDROOT
BRANCH   1  10
ATOM     10  C   UNL d   1      13.568  12.370  -0.685  0.00  0.00     0.303 C 
ATOM     11  N   UNL d   1      13.009  11.796  -1.950  0.00  0.00    -0.206 NA
ATOM     12  O   UNL d   1      13.459  11.968  -0.039  0.00  0.00    -0.263 OA
BRANCH  11  13
ATOM     13  C   UNL d   1      13.107  12.204  -2.666  0.00  0.00     0.087 A 
ATOM     14  C   UNL d   1      13.309  11.788  -3.356  0.00  0.00     0.046 A 
ATOM     15  C   UNL d   1      13.407  12.194  -4.069  0.00  0.00     0.124 A 
ATOM     16  O   UNL d   1      13.609  11.782  -4.765  0.00  0.00    -0.301 OA
ATOM     17  C   UNL d   1      13.305  13.025  -4.110  0.00  0.00     0.123 A 
ATOM     18  C   UNL d   1      13.707  12.188  -5.479  0.00  0.00     0.149 A 
ATOM     19  C   UNL d   1      13.605  13.009  -5.511  0.00  0.00     0.149 A 
ATOM     20  O   UNL d   1      13.400  13.431  -4.809  0.00  0.00    -0.301 OA
ATOM     21  C   UNL d   1      13.102  13.437  -3.413  0.00  0.00     0.028 A 
ATOM     22  C   UNL d   1      13.003  13.023  -2.686  0.00  0.00     0.021 A 
ENDBRANCH  11  13
ENDBRANCH   1  10
BRANCH   2  23
ATOM     23  N   UNL d   1      15.141  12.692  -0.211  0.00  0.00    -0.206 NA
ATOM     24  C   UNL d   1      15.739  12.325  -0.658  0.00  0.00     0.279 C 
ATOM     25  O   UNL d   1      15.817  12.497  -1.473  0.00  0.00    -0.265 OA
BRANCH  24  26
ATOM     26  C   UNL d   1      16.260  11.785  -0.291  0.00  0.00     0.062 C 
ATOM     27  C   UNL d   1      16.993  12.044  -0.014  0.00  0.00     0.005 C 
ENDBRANCH  24  26
ENDBRANCH   2  23
TORSDOF 4
ENDMDL
