MODEL 1
REMARK VINA RESULT:      -5.8      0.000      0.000
REMARK  3 active torsions:
REMARK  status: ('A' for Active; 'I' for Inactive)
REMARK    1  A    between atoms: C_10  and  N_1 
REMARK       I    between atoms: N_3  and  C_4 
REMARK    2  A    between atoms: C_4  and  C_10 
REMARK    3  A    between atoms: O_17  and  C_13 
ROOT
ATOM      1  N   UNL d   1      57.047  -0.024  31.444  0.00  0.00    -0.268 N 
ATOM      2  C   UNL d   1      56.689  -0.722  31.719  0.00  0.00     0.265 A 
ATOM      3  C   UNL d   1      56.264  -0.715  32.426  0.00  0.00     0.059 A 
ATOM      4  C   UNL d   1      56.191  -0.019  32.861  0.00  0.00     0.028 A 
ATOM      5  C   UNL d   1      56.543   0.682  32.597  0.00  0.00     0.021 A 
ATOM      6  C   UNL d   1      56.974   0.675  31.881  0.00  0.00     0.083 A 
ATOM      7  O   UNL d   1      56.762  -1.418  31.284  0.00  0.00    -0.267 OA
ATOM      8  C   UNL d   1      55.766  -0.015  33.566  0.00  0.00     0.094 A 
ATOM      9  C   UNL d   1      55.911  -1.412  32.692  0.00  0.00     0.005 A 
ATOM     10  C   UNL d   1      55.486  -1.408  33.397  0.00  0.00     0.002 A 
ATOM     11  C   UNL d   1      55.414  -0.712  33.832  0.00  0.00     0.024 A 
ENDROOT
BRANCH   1  12
ATOM     12  C   UNL d   1      57.472  -0.028  30.739  0.00  0.00     0.144 C 
BRANCH  12  13
ATOM     13  C   UNL d   1      58.279   0.148  30.744  0.00  0.00     0.283 C 
ATOM     14  N   UNL d   1      58.713   0.146  30.044  0.00  0.00    -0.272 N 
ATOM     15  C   UNL d   1      59.511   0.321  30.058  0.00  0.00     0.067 A 
ATOM     16  C   UNL d   1      58.331  -0.036  29.326  0.00  0.00     0.083 A 
ATOM     17  C   UNL d   1      59.943   0.318  29.351  0.00  0.00     0.016 A 
ATOM     18  C   UNL d   1      59.881   0.499  30.763  0.00  0.00     0.018 A 
ATOM     19  C   UNL d   1      60.745   0.493  29.358  0.00  0.00     0.001 A 
ATOM     20  C   UNL d   1      59.573   0.139  28.632  0.00  0.00     0.003 A 
ATOM     21  C   UNL d   1      61.122   0.673  30.066  0.00  0.00     0.000 A 
ATOM     22  C   UNL d   1      60.688   0.676  30.777  0.00  0.00     0.002 A 
ATOM     23  C   UNL d   1      58.773  -0.037  28.621  0.00  0.00     0.019 A 
ATOM     24  O   UNL d   1      58.653   0.328  31.461  0.00  0.00    -0.265 OA
ENDBRANCH  12  13
ENDBRANCH   1  12
BRANCH   8  25
ATOM     25  O   UNL d   1      55.691   0.679  34.003  0.00  0.00    -0.328 OA
ATOM     26  C   UNL d   1      55.259   0.681  34.701  0.00  0.00     0.181 C 
ENDBRANCH   8  25
TORSDOF 3
ENDMDL
MODEL 2
REMARK VINA RESULT:      -3.8      1.187      4.736
REMARK  3 active torsions:
REMARK  status: ('A' for Active; 'I' for Inactive)
REMARK    1  A    between atoms: C_10  and  N_1 
REMARK       I    between atoms: N_3  and  C_4 
REMARK    2  A    between atoms: C_4  and  C_10 
REMARK    3  A    between atoms: O_17  and  C_13 
ROOT
ATOM      1  N   UNL d   1      57.707  -0.009  30.943  0.00  0.00    -0.268 N 
ATOM      2  C   UNL d   1      57.855  -0.688  30.487  0.00  0.00     0.265 A 
ATOM      3  C   UNL d   1      58.483  -0.695  29.952  0.00  0.00     0.059 A 
ATOM      4  C   UNL d   1      58.964  -0.031  29.866  0.00  0.00     0.028 A 
ATOM      5  C   UNL d   1      58.826   0.650  30.315  0.00  0.00     0.021 A 
ATOM      6  C   UNL d   1      58.191   0.657  30.857  0.00  0.00     0.083 A 
ATOM      7  O   UNL d   1      57.373  -1.351  30.572  0.00  0.00    -0.267 OA
ATOM      8  C   UNL d   1      59.590  -0.041  29.332  0.00  0.00     0.094 A 
ATOM      9  C   UNL d   1      58.623  -1.372  29.503  0.00  0.00     0.005 A 
ATOM     10  C   UNL d   1      59.249  -1.382  28.968  0.00  0.00     0.002 A 
ATOM     11  C   UNL d   1      59.730  -0.719  28.883  0.00  0.00     0.024 A 
ENDROOT
BRANCH   1  12
ATOM     12  C   UNL d   1      57.082   0.001  31.478  0.00  0.00     0.144 C 
BRANCH  12  13
ATOM     13  C   UNL d   1      57.223   0.171  32.274  0.00  0.00     0.283 C 
ATOM     14  N   UNL d   1      56.605   0.172  32.819  0.00  0.00    -0.272 N 
ATOM     15  C   UNL d   1      56.753   0.342  33.604  0.00  0.00     0.067 A 
ATOM     16  C   UNL d   1      55.832  -0.001  32.561  0.00  0.00     0.083 A 
ATOM     17  C   UNL d   1      56.128   0.341  34.148  0.00  0.00     0.016 A 
ATOM     18  C   UNL d   1      57.512   0.510  33.852  0.00  0.00     0.018 A 
ATOM     19  C   UNL d   1      56.271   0.511  34.939  0.00  0.00     0.001 A 
ATOM     20  C   UNL d   1      55.356   0.171  33.902  0.00  0.00     0.003 A 
ATOM     21  C   UNL d   1      57.034   0.682  35.193  0.00  0.00     0.000 A 
ATOM     22  C   UNL d   1      57.663   0.682  34.646  0.00  0.00     0.002 A 
ATOM     23  C   UNL d   1      55.210   0.001  33.114  0.00  0.00     0.019 A 
ATOM     24  O   UNL d   1      57.994   0.342  32.523  0.00  0.00    -0.265 OA
ENDBRANCH  12  13
ENDBRANCH   1  12
BRANCH   8  25
ATOM     25  O   UNL d   1      60.073   0.620  29.243  0.00  0.00    -0.328 OA
ATOM     26  C   UNL d   1      60.776   0.563  28.824  0.00  0.00     0.181 C 
ENDBRANCH   8  25
TORSDOF 3
ENDMDL
MODEL 3
REMARK VINA RESULT:      -3.6      1.442      4.909
REMARK  3 active torsions:
REMARK  status: ('A' for Active; 'I' for Inactive)
REMARK    1  A    between atoms: C_10  and  N_1 
REMARK       I    between atoms: N_3  and  C_4 
REMARK    2  A    between atoms: C_4  and  C_10 
REMARK    3  A    between atoms: O_17  and  C_13 
ROOT
ATOM      1  N   UNL d   1      58.168  -0.238  30.659  0.00  0.00    -0.268 N 
ATOM      2  C   UNL d   1      58.780  -0.061  30.126  0.00  0.00     0.265 A 
ATOM      3  C   UNL d   1      59.014  -0.622  29.569  0.00  0.00     0.059 A 
ATOM      4  C   UNL d   1      58.645  -1.359  29.539  0.00  0.00     0.028 A 
ATOM      5  C   UNL d   1      58.035  -1.545  30.065  0.00  0.00     0.021 A 
ATOM      6  C   UNL d   1      57.797  -0.977  30.629  0.00  0.00     0.083 A 
ATOM      7  O   UNL d   1      59.149   0.676  30.156  0.00  0.00    -0.267 OA
ATOM      8  C   UNL d   1      58.882  -1.917  28.983  0.00  0.00     0.094 A 
ATOM      9  C   UNL d   1      59.623  -0.439  29.043  0.00  0.00     0.005 A 
ATOM     10  C   UNL d   1      59.860  -0.998  28.486  0.00  0.00     0.002 A 
ATOM     11  C   UNL d   1      59.490  -1.734  28.456  0.00  0.00     0.024 A 
ENDROOT
BRANCH   1  12
ATOM     12  C   UNL d   1      57.931   0.321  31.216  0.00  0.00     0.144 C 
BRANCH  12  13
ATOM     13  C   UNL d   1      57.249   0.191  31.665  0.00  0.00     0.283 C 
ATOM     14  N   UNL d   1      57.255   0.310  32.480  0.00  0.00    -0.272 N 
ATOM     15  C   UNL d   1      56.577   0.180  32.916  0.00  0.00     0.067 A 
ATOM     16  C   UNL d   1      57.957   0.563  32.852  0.00  0.00     0.083 A 
ATOM     17  C   UNL d   1      56.588   0.301  33.737  0.00  0.00     0.016 A 
ATOM     18  C   UNL d   1      55.892  -0.067  32.549  0.00  0.00     0.018 A 
ATOM     19  C   UNL d   1      55.910   0.172  34.181  0.00  0.00     0.001 A 
ATOM     20  C   UNL d   1      57.281   0.553  34.115  0.00  0.00     0.003 A 
ATOM     21  C   UNL d   1      55.217  -0.077  33.814  0.00  0.00     0.000 A 
ATOM     22  C   UNL d   1      55.206  -0.199  32.990  0.00  0.00     0.002 A 
ATOM     23  C   UNL d   1      57.959   0.682  33.675  0.00  0.00     0.019 A 
ATOM     24  O   UNL d   1      56.555  -0.060  31.289  0.00  0.00    -0.265 OA
ENDBRANCH  12  13
ENDBRANCH   1  12
BRANCH   8  25
ATOM     25  O   UNL d   1      58.515  -2.654  28.950  0.00  0.00    -0.328 OA
ATOM     26  C   UNL d   1      58.810  -3.239  28.455  0.00  0.00     0.181 C 
ENDBRANCH   8  25
TORSDOF 3
ENDMDL
MODEL 4
REMARK VINA RESULT:      -3.3      9.143     10.429
REMARK  3 active torsions:
REMARK  status: ('A' for Active; 'I' for Inactive)
REMARK    1  A    between atoms: C_10  and  N_1 
REMARK       I    between atoms: N_3  and  C_4 
REMARK    2  A    between atoms: C_4  and  C_10 
REMARK    3  A    between atoms: O_17  and  C_13 
ROOT
ATOM      1  N   UNL d   1      59.347  -9.816  32.316  0.00  0.00    -0.268 N 
ATOM      2  C   UNL d   1      59.761  -9.814  31.595  0.00  0.00     0.265 A 
ATOM      3  C   UNL d   1      59.345  -9.812  30.883  0.00  0.00     0.059 A 
ATOM      4  C   UNL d   1      58.521  -9.812  30.881  0.00  0.00     0.028 A 
ATOM      5  C   UNL d   1      58.099  -9.815  31.592  0.00  0.00     0.021 A 
ATOM      6  C   UNL d   1      58.519  -9.817  32.314  0.00  0.00     0.083 A 
ATOM      7  O   UNL d   1      60.585  -9.813  31.597  0.00  0.00    -0.267 OA
ATOM      8  C   UNL d   1      58.109  -9.811  30.168  0.00  0.00     0.094 A 
ATOM      9  C   UNL d   1      59.763  -9.809  30.171  0.00  0.00     0.005 A 
ATOM     10  C   UNL d   1      59.352  -9.807  29.459  0.00  0.00     0.002 A 
ATOM     11  C   UNL d   1      58.528  -9.808  29.457  0.00  0.00     0.024 A 
ENDROOT
BRANCH   1  12
ATOM     12  C   UNL d   1      59.758  -9.818  33.028  0.00  0.00     0.144 C 
BRANCH  12  13
ATOM     13  C   UNL d   1      59.577  -9.260  33.611  0.00  0.00     0.283 C 
ATOM     14  N   UNL d   1      60.010  -9.228  34.311  0.00  0.00    -0.272 N 
ATOM     15  C   UNL d   1      59.824  -8.674  34.881  0.00  0.00     0.067 A 
ATOM     16  C   UNL d   1      60.636  -9.764  34.429  0.00  0.00     0.083 A 
ATOM     17  C   UNL d   1      60.263  -8.646  35.583  0.00  0.00     0.016 A 
ATOM     18  C   UNL d   1      59.210  -8.151  34.761  0.00  0.00     0.018 A 
ATOM     19  C   UNL d   1      60.081  -8.091  36.160  0.00  0.00     0.001 A 
ATOM     20  C   UNL d   1      60.888  -9.175  35.710  0.00  0.00     0.003 A 
ATOM     21  C   UNL d   1      59.462  -7.562  36.043  0.00  0.00     0.000 A 
ATOM     22  C   UNL d   1      59.021  -7.590  35.337  0.00  0.00     0.002 A 
ATOM     23  C   UNL d   1      61.072  -9.729  35.137  0.00  0.00     0.019 A 
ATOM     24  O   UNL d   1      58.953  -8.730  33.486  0.00  0.00    -0.265 OA
ENDBRANCH  12  13
ENDBRANCH   1  12
BRANCH   8  25
ATOM     25  O   UNL d   1      57.285  -9.811  30.163  0.00  0.00    -0.328 OA
ATOM     26  C   UNL d   1      56.879  -9.780  29.451  0.00  0.00     0.181 C 
ENDBRANCH   8  25
TORSDOF 3
ENDMDL
