MODEL 1
REMARK VINA RESULT:      -3.9      0.000      0.000
REMARK  6 active torsions:
REMARK  status: ('A' for Active; 'I' for Inactive)
REMARK    1  A    between atoms: N_3  and  C_1 
REMARK       I    between atoms: C_7  and  N_3 
REMARK    2  A    between atoms: S_14  and  C_4 
REMARK    3  A    between atoms: C_8  and  C_7 
REMARK    4  A    between atoms: C_11  and  N_13 
REMARK    5  A    between atoms: C_12  and  C_21 
REMARK       I    between atoms: N_13  and  C_12 
REMARK    6  A    between atoms: C_21  and  S_14 
ROOT
ATOM      1  S   UNL d   1     -42.221-122.120 -51.398  0.00  0.00    -0.054 SA
ENDROOT
BRANCH   1   2
ATOM      2  C   UNL d   1     -42.074-122.684 -50.825  0.00  0.00     0.165 A 
ATOM      3  S   UNL d   1     -42.268-122.533 -50.071  0.00  0.00    -0.019 SA
ATOM      4  C   UNL d   1     -42.086-123.153 -49.559  0.00  0.00     0.219 A 
ATOM      5  N   UNL d   1     -41.761-123.691 -50.085  0.00  0.00    -0.120 NA
ATOM      6  N   UNL d   1     -41.761-123.397 -50.837  0.00  0.00    -0.133 NA
BRANCH   4   7
ATOM      7  N   UNL d   1     -42.156-123.256 -48.886  0.00  0.00    -0.181 NA
ATOM      8  C   UNL d   1     -42.628-123.494 -48.215  0.00  0.00     0.281 C 
ATOM      9  O   UNL d   1     -43.402-123.736 -48.389  0.00  0.00    -0.265 OA
BRANCH   8  10
ATOM     10  C   UNL d   1     -42.353-123.490 -47.455  0.00  0.00     0.058 A 
ATOM     11  C   UNL d   1     -41.760-123.730 -46.924  0.00  0.00     0.005 A 
ATOM     12  C   UNL d   1     -42.476-123.252 -46.732  0.00  0.00     0.005 A 
ENDBRANCH   8  10
ENDBRANCH   4   7
ENDBRANCH   1   2
BRANCH   1  13
ATOM     13  C   UNL d   1     -41.805-122.066 -52.115  0.00  0.00     0.100 C 
BRANCH  13  14
ATOM     14  C   UNL d   1     -41.394-121.385 -52.357  0.00  0.00     0.286 C 
ATOM     15  N   UNL d   1     -41.236-121.247 -53.144  0.00  0.00    -0.208 NA
ATOM     16  O   UNL d   1     -41.123-120.809 -51.817  0.00  0.00    -0.265 OA
BRANCH  15  17
ATOM     17  C   UNL d   1     -41.506-121.823 -53.707  0.00  0.00     0.085 A 
ATOM     18  C   UNL d   1     -42.124-121.579 -54.163  0.00  0.00     0.019 A 
ATOM     19  C   UNL d   1     -42.402-122.081 -54.694  0.00  0.00     0.002 A 
ATOM     20  C   UNL d   1     -42.999-121.947 -55.189  0.00  0.00     0.000 C 
ATOM     21  C   UNL d   1     -42.077-122.854 -54.798  0.00  0.00     0.000 A 
ATOM     22  C   UNL d   1     -41.416-123.088 -54.296  0.00  0.00     0.002 A 
ATOM     23  C   UNL d   1     -41.126-122.556 -53.737  0.00  0.00     0.019 A 
ATOM     24  C   UNL d   1     -41.123-123.817 -54.407  0.00  0.00     0.000 C 
ENDBRANCH  15  17
ENDBRANCH  13  14
ENDBRANCH   1  13
TORSDOF 6
ENDMDL
