MODEL 1
REMARK VINA RESULT:      -9.0      0.000      0.000
REMARK  7 active torsions:
REMARK  status: ('A' for Active; 'I' for Inactive)
REMARK    1  A    between atoms: C_3  and  S_1 
REMARK    2  A    between atoms: N_4  and  S_1 
REMARK    3  A    between atoms: C_2  and  C_11 
REMARK       I    between atoms: N_5  and  C_2 
REMARK    4  A    between atoms: C_18  and  N_4 
REMARK    5  A    between atoms: C_12  and  N_5 
REMARK    6  A    between atoms: C_22  and  C_18 
REMARK    7  A    between atoms: O_26  and  C_19 
ROOT
ATOM      1  C   UNL d   1      51.096  34.324  52.713  0.00  0.00     0.058 A 
ATOM      2  C   UNL d   1      50.446  34.416  53.225  0.00  0.00     0.005 A 
ATOM      3  C   UNL d   1      50.978  34.315  51.897  0.00  0.00     0.005 A 
ATOM      4  C   UNL d   1      49.570  34.490  52.107  0.00  0.00     0.020 A 
ATOM      5  C   UNL d   1      49.690  34.498  52.922  0.00  0.00     0.002 A 
ATOM      6  C   UNL d   1      50.209  34.399  51.592  0.00  0.00     0.002 A 
ENDROOT
BRANCH   4   7
ATOM      7  C   UNL d   1      48.806  34.573  51.795  0.00  0.00     0.112 C 
BRANCH   7   8
ATOM      8  N   UNL d   1      48.469  35.330  51.714  0.00  0.00    -0.157 NA
BRANCH   8   9
ATOM      9  S   UNL d   1      47.647  35.416  51.617  0.00  0.00     0.285 S 
ATOM     10  O   UNL d   1      47.636  34.778  51.080  0.00  0.00    -0.198 OA
ATOM     11  O   UNL d   1      47.649  36.059  52.157  0.00  0.00    -0.198 OA
BRANCH   9  12
ATOM     12  C   UNL d   1      46.820  35.507  51.522  0.00  0.00     0.107 A 
ATOM     13  C   UNL d   1      46.328  35.552  52.183  0.00  0.00     0.037 A 
ATOM     14  C   UNL d   1      45.516  35.641  52.092  0.00  0.00     0.095 A 
ATOM     15  C   UNL d   1      45.188  35.686  51.340  0.00  0.00     0.024 A 
ATOM     16  C   UNL d   1      45.679  35.642  50.672  0.00  0.00     0.003 A 
ATOM     17  C   UNL d   1      46.491  35.552  50.763  0.00  0.00     0.013 A 
BRANCH  14  18
ATOM     18  O   UNL d   1      45.016  35.687  52.757  0.00  0.00    -0.328 OA
ATOM     19  C   UNL d   1      44.385  35.167  52.824  0.00  0.00     0.181 C 
ENDBRANCH  14  18
ENDBRANCH   9  12
ENDBRANCH   8   9
ENDBRANCH   7   8
ENDBRANCH   4   7
BRANCH   1  20
ATOM     20  C   UNL d   1      51.860  34.240  53.010  0.00  0.00     0.279 C 
ATOM     21  N   UNL d   1      52.011  33.703  53.615  0.00  0.00    -0.208 NA
ATOM     22  O   UNL d   1      52.479  34.694  52.704  0.00  0.00    -0.265 OA
BRANCH  21  23
ATOM     23  C   UNL d   1      52.783  33.619  53.913  0.00  0.00     0.086 A 
ATOM     24  C   UNL d   1      53.248  32.978  53.659  0.00  0.00     0.032 A 
ATOM     25  C   UNL d   1      54.019  32.899  53.961  0.00  0.00     0.070 A 
ATOM     26 CL   UNL d   1      54.482  32.264  53.711  0.00  0.00    -0.081 Cl
ATOM     27  C   UNL d   1      54.310  33.449  54.500  0.00  0.00     0.068 A 
ATOM     28  C   UNL d   1      53.836  34.083  54.745  0.00  0.00     0.014 A 
ATOM     29 CL   UNL d   1      55.080  33.362  54.796  0.00  0.00    -0.082 Cl
ATOM     30  C   UNL d   1      53.073  34.163  54.448  0.00  0.00     0.020 A 
ENDBRANCH  21  23
ENDBRANCH   1  20
TORSDOF 7
ENDMDL
MODEL 2
REMARK VINA RESULT:      -8.5      3.108      7.097
REMARK  7 active torsions:
REMARK  status: ('A' for Active; 'I' for Inactive)
REMARK    1  A    between atoms: C_3  and  S_1 
REMARK    2  A    between atoms: N_4  and  S_1 
REMARK    3  A    between atoms: C_2  and  C_11 
REMARK       I    between atoms: N_5  and  C_2 
REMARK    4  A    between atoms: C_18  and  N_4 
REMARK    5  A    between atoms: C_12  and  N_5 
REMARK    6  A    between atoms: C_22  and  C_18 
REMARK    7  A    between atoms: O_26  and  C_19 
ROOT
ATOM      1  C   UNL d   1      48.575  35.206  52.163  0.00  0.00     0.058 A 
ATOM      2  C   UNL d   1      48.986  34.761  51.592  0.00  0.00     0.005 A 
ATOM      3  C   UNL d   1      48.877  35.271  52.927  0.00  0.00     0.005 A 
ATOM      4  C   UNL d   1      49.992  34.452  52.548  0.00  0.00     0.020 A 
ATOM      5  C   UNL d   1      49.689  34.388  51.784  0.00  0.00     0.002 A 
ATOM      6  C   UNL d   1      49.592  34.891  53.121  0.00  0.00     0.002 A 
ENDROOT
BRANCH   4   7
ATOM      7  C   UNL d   1      50.704  34.076  52.749  0.00  0.00     0.112 C 
BRANCH   7   8
ATOM      8  N   UNL d   1      51.354  34.527  53.008  0.00  0.00    -0.157 NA
BRANCH   8   9
ATOM      9  S   UNL d   1      52.053  34.151  53.255  0.00  0.00     0.285 S 
ATOM     10  O   UNL d   1      52.503  34.810  53.015  0.00  0.00    -0.198 OA
ATOM     11  O   UNL d   1      51.609  33.481  53.501  0.00  0.00    -0.198 OA
BRANCH   9  12
ATOM     12  C   UNL d   1      52.755  33.767  53.506  0.00  0.00     0.107 A 
ATOM     13  C   UNL d   1      53.173  34.050  54.159  0.00  0.00     0.037 A 
ATOM     14  C   UNL d   1      53.861  33.675  54.407  0.00  0.00     0.095 A 
ATOM     15  C   UNL d   1      54.138  33.015  54.005  0.00  0.00     0.024 A 
ATOM     16  C   UNL d   1      53.720  32.726  53.347  0.00  0.00     0.003 A 
ATOM     17  C   UNL d   1      53.032  33.101  53.099  0.00  0.00     0.013 A 
BRANCH  14  18
ATOM     18  O   UNL d   1      54.286  33.958  55.066  0.00  0.00    -0.328 OA
ATOM     19  C   UNL d   1      55.057  33.708  55.186  0.00  0.00     0.181 C 
ENDBRANCH  14  18
ENDBRANCH   9  12
ENDBRANCH   8   9
ENDBRANCH   7   8
ENDBRANCH   4   7
BRANCH   1  20
ATOM     20  C   UNL d   1      47.867  35.585  51.977  0.00  0.00     0.279 C 
ATOM     21  N   UNL d   1      47.153  35.182  52.049  0.00  0.00    -0.208 NA
ATOM     22  O   UNL d   1      47.869  36.369  51.716  0.00  0.00    -0.265 OA
BRANCH  21  23
ATOM     23  C   UNL d   1      46.439  35.565  51.861  0.00  0.00     0.086 A 
ATOM     24  C   UNL d   1      45.999  35.923  52.470  0.00  0.00     0.032 A 
ATOM     25  C   UNL d   1      45.286  36.305  52.277  0.00  0.00     0.070 A 
ATOM     26 CL   UNL d   1      44.848  36.660  52.879  0.00  0.00    -0.081 Cl
ATOM     27  C   UNL d   1      45.027  36.325  51.496  0.00  0.00     0.068 A 
ATOM     28  C   UNL d   1      45.475  35.965  50.899  0.00  0.00     0.014 A 
ATOM     29 CL   UNL d   1      44.315  36.708  51.312  0.00  0.00    -0.082 Cl
ATOM     30  C   UNL d   1      46.181  35.586  51.088  0.00  0.00     0.020 A 
ENDBRANCH  21  23
ENDBRANCH   1  20
TORSDOF 7
ENDMDL
MODEL 3
REMARK VINA RESULT:      -6.9      1.625      2.036
REMARK  7 active torsions:
REMARK  status: ('A' for Active; 'I' for Inactive)
REMARK    1  A    between atoms: C_3  and  S_1 
REMARK    2  A    between atoms: N_4  and  S_1 
REMARK    3  A    between atoms: C_2  and  C_11 
REMARK       I    between atoms: N_5  and  C_2 
REMARK    4  A    between atoms: C_18  and  N_4 
REMARK    5  A    between atoms: C_12  and  N_5 
REMARK    6  A    between atoms: C_22  and  C_18 
REMARK    7  A    between atoms: O_26  and  C_19 
ROOT
ATOM      1  C   UNL d   1      51.296  33.538  52.843  0.00  0.00     0.058 A 
ATOM      2  C   UNL d   1      51.241  33.994  52.149  0.00  0.00     0.005 A 
ATOM      3  C   UNL d   1      50.684  33.557  53.396  0.00  0.00     0.005 A 
ATOM      4  C   UNL d   1      49.972  34.483  52.565  0.00  0.00     0.020 A 
ATOM      5  C   UNL d   1      50.584  34.463  52.013  0.00  0.00     0.002 A 
ATOM      6  C   UNL d   1      50.017  34.034  53.255  0.00  0.00     0.002 A 
ENDROOT
BRANCH   4   7
ATOM      7  C   UNL d   1      49.303  34.957  52.431  0.00  0.00     0.112 C 
BRANCH   7   8
ATOM      8  N   UNL d   1      49.134  35.591  52.943  0.00  0.00    -0.157 NA
BRANCH   8   9
ATOM      9  S   UNL d   1      48.354  35.869  53.022  0.00  0.00     0.285 S 
ATOM     10  O   UNL d   1      48.167  35.587  52.261  0.00  0.00    -0.198 OA
ATOM     11  O   UNL d   1      48.533  36.157  53.791  0.00  0.00    -0.198 OA
BRANCH   9  12
ATOM     12  C   UNL d   1      47.570  36.152  53.108  0.00  0.00     0.107 A 
ATOM     13  C   UNL d   1      47.217  36.183  53.853  0.00  0.00     0.037 A 
ATOM     14  C   UNL d   1      46.448  36.460  53.939  0.00  0.00     0.095 A 
ATOM     15  C   UNL d   1      46.025  36.708  53.281  0.00  0.00     0.024 A 
ATOM     16  C   UNL d   1      46.375  36.680  52.528  0.00  0.00     0.003 A 
ATOM     17  C   UNL d   1      47.144  36.403  52.442  0.00  0.00     0.013 A 
BRANCH  14  18
ATOM     18  O   UNL d   1      46.089  36.492  54.690  0.00  0.00    -0.328 OA
ATOM     19  C   UNL d   1      45.332  36.193  54.789  0.00  0.00     0.181 C 
ENDBRANCH  14  18
ENDBRANCH   9  12
ENDBRANCH   8   9
ENDBRANCH   7   8
ENDBRANCH   4   7
BRANCH   1  20
ATOM     20  C   UNL d   1      51.954  33.063  52.987  0.00  0.00     0.279 C 
ATOM     21  N   UNL d   1      51.887  32.244  52.952  0.00  0.00    -0.208 NA
ATOM     22  O   UNL d   1      52.684  33.406  53.168  0.00  0.00    -0.265 OA
BRANCH  21  23
ATOM     23  C   UNL d   1      52.552  31.766  53.099  0.00  0.00     0.086 A 
ATOM     24  C   UNL d   1      52.476  30.939  53.046  0.00  0.00     0.032 A 
ATOM     25  C   UNL d   1      53.143  30.466  53.193  0.00  0.00     0.070 A 
ATOM     26 CL   UNL d   1      53.070  29.646  53.141  0.00  0.00    -0.081 Cl
ATOM     27  C   UNL d   1      53.863  30.816  53.386  0.00  0.00     0.068 A 
ATOM     28  C   UNL d   1      53.926  31.641  53.435  0.00  0.00     0.014 A 
ATOM     29 CL   UNL d   1      54.524  30.336  53.531  0.00  0.00    -0.082 Cl
ATOM     30  C   UNL d   1      53.265  32.111  53.290  0.00  0.00     0.020 A 
ENDBRANCH  21  23
ENDBRANCH   1  20
TORSDOF 7
ENDMDL
