MODEL 1
REMARK VINA RESULT:      34.4      0.000      0.000
REMARK  6 active torsions:
REMARK  status: ('A' for Active; 'I' for Inactive)
REMARK    1  A    between atoms: N_3  and  C_1 
REMARK    2  A    between atoms: C_4  and  C_2 
REMARK       I    between atoms: C_6  and  N_3 
REMARK    3  A    between atoms: C_11  and  C_6 
REMARK    4  A    between atoms: C_13  and  C_11 
REMARK    5  A    between atoms: O_19  and  C_14 
REMARK    6  A    between atoms: C_20  and  O_19 
ROOT
ATOM      1  N   UNL d   1     -57.771 -98.781 -44.181  0.00  0.00    -0.201 NA
ATOM      2  C   UNL d   1     -57.309 -99.109 -44.780  0.00  0.00     0.280 C 
ATOM      3  O   UNL d   1     -57.675 -99.484 -45.430  0.00  0.00    -0.265 OA
ENDROOT
BRANCH   2   4
ATOM      4  C   UNL d   1     -56.484 -99.067 -44.740  0.00  0.00     0.062 C 
BRANCH   4   5
ATOM      5  C   UNL d   1     -56.043 -99.754 -44.577  0.00  0.00     0.005 A 
ATOM      6  C   UNL d   1     -55.221 -99.744 -44.649  0.00  0.00     0.002 A 
ATOM      7  C   UNL d   1     -54.786-100.426 -44.486  0.00  0.00     0.025 A 
ATOM      8  C   UNL d   1     -55.179-101.128 -44.247  0.00  0.00     0.100 A 
ATOM      9  C   UNL d   1     -55.997-101.131 -44.177  0.00  0.00     0.025 A 
ATOM     10  C   UNL d   1     -56.436-100.456 -44.338  0.00  0.00     0.002 A 
BRANCH   8  11
ATOM     11  O   UNL d   1     -54.729-101.809 -44.086  0.00  0.00    -0.305 OA
BRANCH  11  12
ATOM     12  C   UNL d   1     -54.715-102.143 -43.336  0.00  0.00     0.123 C 
ATOM     13  C   UNL d   1     -55.120-102.840 -43.177  0.00  0.00     0.029 C 
ENDBRANCH  11  12
ENDBRANCH   8  11
ENDBRANCH   4   5
ENDBRANCH   2   4
BRANCH   1  14
ATOM     14  C   UNL d   1     -58.600 -98.825 -44.227  0.00  0.00     0.119 A 
ATOM     15  C   UNL d   1     -59.106 -98.901 -43.580  0.00  0.00     0.084 A 
ATOM     16  C   UNL d   1     -59.878 -98.926 -43.867  0.00  0.00     0.014 A 
ATOM     17  C   UNL d   1     -59.852 -98.864 -44.701  0.00  0.00     0.037 A 
ATOM     18  S   UNL d   1     -59.054 -98.803 -44.907  0.00  0.00    -0.067 SA
BRANCH  15  19
ATOM     19  C   UNL d   1     -58.892 -98.947 -42.777  0.00  0.00     0.299 C 
ATOM     20  O   UNL d   1     -59.435 -99.171 -42.208  0.00  0.00    -0.264 OA
ATOM     21  N   UNL d   1     -58.113 -98.761 -42.557  0.00  0.00    -0.102 N 
ENDBRANCH  15  19
ENDBRANCH   1  14
TORSDOF 6
ENDMDL
MODEL 2
REMARK VINA RESULT:      35.2      1.767      4.283
REMARK  6 active torsions:
REMARK  status: ('A' for Active; 'I' for Inactive)
REMARK    1  A    between atoms: N_3  and  C_1 
REMARK    2  A    between atoms: C_4  and  C_2 
REMARK       I    between atoms: C_6  and  N_3 
REMARK    3  A    between atoms: C_11  and  C_6 
REMARK    4  A    between atoms: C_13  and  C_11 
REMARK    5  A    between atoms: O_19  and  C_14 
REMARK    6  A    between atoms: C_20  and  O_19 
ROOT
ATOM      1  N   UNL d   1     -56.067-100.154 -44.437  0.00  0.00    -0.201 NA
ATOM      2  C   UNL d   1     -55.902 -99.351 -44.518  0.00  0.00     0.280 C 
ATOM      3  O   UNL d   1     -55.203 -99.106 -44.904  0.00  0.00    -0.265 OA
ENDROOT
BRANCH   2   4
ATOM      4  C   UNL d   1     -56.426 -98.785 -44.218  0.00  0.00     0.062 C 
BRANCH   4   5
ATOM      5  C   UNL d   1     -57.221 -98.786 -44.463  0.00  0.00     0.005 A 
ATOM      6  C   UNL d   1     -57.826 -98.817 -43.903  0.00  0.00     0.002 A 
ATOM      7  C   UNL d   1     -58.614 -98.818 -44.150  0.00  0.00     0.025 A 
ATOM      8  C   UNL d   1     -58.798 -98.788 -44.968  0.00  0.00     0.100 A 
ATOM      9  C   UNL d   1     -58.191 -98.757 -45.520  0.00  0.00     0.025 A 
ATOM     10  C   UNL d   1     -57.405 -98.756 -45.281  0.00  0.00     0.002 A 
BRANCH   8  11
ATOM     11  O   UNL d   1     -59.597 -98.789 -45.204  0.00  0.00    -0.305 OA
BRANCH  11  12
ATOM     12  C   UNL d   1     -59.850 -99.229 -45.849  0.00  0.00     0.123 C 
ATOM     13  C   UNL d   1     -59.770 -98.940 -46.613  0.00  0.00     0.029 C 
ENDBRANCH  11  12
ENDBRANCH   8  11
ENDBRANCH   4   5
ENDBRANCH   2   4
BRANCH   1  14
ATOM     14  C   UNL d   1     -55.537-100.718 -44.741  0.00  0.00     0.119 A 
ATOM     15  C   UNL d   1     -55.201-101.333 -44.306  0.00  0.00     0.084 A 
ATOM     16  C   UNL d   1     -54.711-101.760 -44.813  0.00  0.00     0.014 A 
ATOM     17  C   UNL d   1     -54.742-101.406 -45.571  0.00  0.00     0.037 A 
ATOM     18  S   UNL d   1     -55.257-100.763 -45.508  0.00  0.00    -0.067 SA
BRANCH  15  19
ATOM     19  C   UNL d   1     -55.324-101.507 -43.502  0.00  0.00     0.299 C 
ATOM     20  O   UNL d   1     -54.986-101.049 -42.915  0.00  0.00    -0.264 OA
ATOM     21  N   UNL d   1     -55.800-102.156 -43.299  0.00  0.00    -0.102 N 
ENDBRANCH  15  19
ENDBRANCH   1  14
TORSDOF 6
ENDMDL
