MODEL 1
REMARK VINA RESULT:      -2.5      0.000      0.000
REMARK  3 active torsions:
REMARK  status: ('A' for Active; 'I' for Inactive)
REMARK    1  A    between atoms: C_6  and  C_1 
REMARK       I    between atoms: N_8  and  C_6 
REMARK    2  A    between atoms: C_16  and  N_8 
REMARK       I    between atoms: C_12  and  N_13 
REMARK    3  A    between atoms: N_13  and  C_17 
ROOT
ATOM      1  C   UNL d   1      32.577  19.719 -22.348  0.00  0.00     0.302 C 
ATOM      2  N   UNL d   1      33.167  19.434 -22.849  0.00  0.00    -0.206 NA
ATOM      3  O   UNL d   1      31.866  19.317 -22.281  0.00  0.00    -0.263 OA
ENDROOT
BRANCH   1   4
ATOM      4  C   UNL d   1      32.706  20.408 -21.913  0.00  0.00     0.158 A 
ATOM      5  O   UNL d   1      32.779  21.175 -22.223  0.00  0.00    -0.302 OA
ATOM      6  C   UNL d   1      32.903  21.693 -21.583  0.00  0.00     0.100 A 
ATOM      7  C   UNL d   1      33.015  22.515 -21.544  0.00  0.00     0.025 A 
ATOM      8  C   UNL d   1      32.907  21.251 -20.881  0.00  0.00     0.025 A 
ATOM      9  C   UNL d   1      33.127  22.884 -20.817  0.00  0.00     0.002 A 
ATOM     10  C   UNL d   1      33.237  23.702 -20.780  0.00  0.00     0.000 C 
ATOM     11  C   UNL d   1      33.129  22.435 -20.120  0.00  0.00     0.000 A 
ATOM     12  C   UNL d   1      33.019  21.620 -20.153  0.00  0.00     0.002 A 
ATOM     13  C   UNL d   1      33.241  22.806 -19.395  0.00  0.00     0.000 C 
ATOM     14  C   UNL d   1      32.787  20.461 -21.068  0.00  0.00     0.029 A 
ATOM     15  C   UNL d   1      32.750  19.826 -20.539  0.00  0.00     0.002 C 
ENDBRANCH   1   4
BRANCH   2  16
ATOM     16  C   UNL d   1      33.042  18.744 -23.285  0.00  0.00     0.085 A 
ATOM     17  C   UNL d   1      33.212  18.014 -22.942  0.00  0.00     0.021 A 
ATOM     18  C   UNL d   1      33.088  17.329 -23.375  0.00  0.00     0.021 A 
ATOM     19  C   UNL d   1      32.795  17.366 -24.150  0.00  0.00     0.085 A 
ATOM     20  C   UNL d   1      32.628  18.102 -24.485  0.00  0.00     0.021 A 
ATOM     21  C   UNL d   1      32.751  18.794 -24.053  0.00  0.00     0.021 A 
BRANCH  19  22
ATOM     22  N   UNL d   1      32.671  16.676 -24.582  0.00  0.00    -0.208 NA
ATOM     23  C   UNL d   1      31.981  16.237 -24.466  0.00  0.00     0.279 C 
ATOM     24  O   UNL d   1      31.410  16.486 -23.917  0.00  0.00    -0.265 OA
ATOM     25  C   UNL d   1      31.850  15.544 -24.895  0.00  0.00     0.068 C 
ENDBRANCH  19  22
ENDBRANCH   2  16
TORSDOF 3
ENDMDL
MODEL 2
REMARK VINA RESULT:      -1.9      1.941      5.717
REMARK  3 active torsions:
REMARK  status: ('A' for Active; 'I' for Inactive)
REMARK    1  A    between atoms: C_6  and  C_1 
REMARK       I    between atoms: N_8  and  C_6 
REMARK    2  A    between atoms: C_16  and  N_8 
REMARK       I    between atoms: C_12  and  N_13 
REMARK    3  A    between atoms: N_13  and  C_17 
ROOT
ATOM      1  C   UNL d   1      33.097  20.938 -21.086  0.00  0.00     0.302 C 
ATOM      2  N   UNL d   1      32.945  21.747 -21.143  0.00  0.00    -0.206 NA
ATOM      3  O   UNL d   1      33.235  20.596 -20.354  0.00  0.00    -0.263 OA
ENDROOT
BRANCH   1   4
ATOM      4  C   UNL d   1      33.112  20.475 -21.769  0.00  0.00     0.158 A 
ATOM      5  O   UNL d   1      33.070  20.753 -22.550  0.00  0.00    -0.302 OA
ATOM      6  C   UNL d   1      33.103  20.090 -23.054  0.00  0.00     0.100 A 
ATOM      7  C   UNL d   1      33.085  20.017 -23.881  0.00  0.00     0.025 A 
ATOM      8  C   UNL d   1      33.165  19.407 -22.588  0.00  0.00     0.025 A 
ATOM      9  C   UNL d   1      33.129  19.274 -24.231  0.00  0.00     0.002 A 
ATOM     10  C   UNL d   1      33.111  19.203 -25.055  0.00  0.00     0.000 C 
ATOM     11  C   UNL d   1      33.190  18.595 -23.759  0.00  0.00     0.000 A 
ATOM     12  C   UNL d   1      33.208  18.663 -22.939  0.00  0.00     0.002 A 
ATOM     13  C   UNL d   1      33.234  17.854 -24.113  0.00  0.00     0.000 C 
ATOM     14  C   UNL d   1      33.171  19.626 -21.797  0.00  0.00     0.029 A 
ATOM     15  C   UNL d   1      33.226  19.123 -21.143  0.00  0.00     0.002 C 
ENDBRANCH   1   4
BRANCH   2  16
ATOM     16  C   UNL d   1      32.930  22.214 -20.462  0.00  0.00     0.085 A 
ATOM     17  C   UNL d   1      33.238  21.912 -19.759  0.00  0.00     0.021 A 
ATOM     18  C   UNL d   1      33.223  22.376 -19.083  0.00  0.00     0.021 A 
ATOM     19  C   UNL d   1      32.902  23.141 -19.102  0.00  0.00     0.085 A 
ATOM     20  C   UNL d   1      32.596  23.434 -19.811  0.00  0.00     0.021 A 
ATOM     21  C   UNL d   1      32.609  22.971 -20.493  0.00  0.00     0.021 A 
BRANCH  19  22
ATOM     22  N   UNL d   1      32.889  23.604 -18.421  0.00  0.00    -0.208 NA
ATOM     23  C   UNL d   1      32.920  23.242 -17.679  0.00  0.00     0.279 C 
ATOM     24  O   UNL d   1      32.964  22.416 -17.614  0.00  0.00    -0.265 OA
ATOM     25  C   UNL d   1      32.907  23.699 -16.992  0.00  0.00     0.068 C 
ENDBRANCH  19  22
ENDBRANCH   2  16
TORSDOF 3
ENDMDL
MODEL 3
REMARK VINA RESULT:      -0.1      1.076      1.711
REMARK  3 active torsions:
REMARK  status: ('A' for Active; 'I' for Inactive)
REMARK    1  A    between atoms: C_6  and  C_1 
REMARK       I    between atoms: N_8  and  C_6 
REMARK    2  A    between atoms: C_16  and  N_8 
REMARK       I    between atoms: C_12  and  N_13 
REMARK    3  A    between atoms: N_13  and  C_17 
ROOT
ATOM      1  C   UNL d   1      32.527  20.291 -21.336  0.00  0.00     0.302 C 
ATOM      2  N   UNL d   1      33.235  20.042 -21.679  0.00  0.00    -0.206 NA
ATOM      3  O   UNL d   1      31.819  19.942 -21.554  0.00  0.00    -0.263 OA
ENDROOT
BRANCH   1   4
ATOM      4  C   UNL d   1      32.535  20.894 -20.772  0.00  0.00     0.158 A 
ATOM      5  O   UNL d   1      33.107  21.003 -20.181  0.00  0.00    -0.302 OA
ATOM      6  C   UNL d   1      32.889  21.678 -19.743  0.00  0.00     0.100 A 
ATOM      7  C   UNL d   1      33.239  22.058 -19.093  0.00  0.00     0.025 A 
ATOM      8  C   UNL d   1      32.188  21.985 -20.062  0.00  0.00     0.025 A 
ATOM      9  C   UNL d   1      32.891  22.730 -18.770  0.00  0.00     0.002 A 
ATOM     10  C   UNL d   1      33.240  23.107 -18.122  0.00  0.00     0.000 C 
ATOM     11  C   UNL d   1      32.189  23.030 -19.094  0.00  0.00     0.000 A 
ATOM     12  C   UNL d   1      31.839  22.658 -19.739  0.00  0.00     0.002 A 
ATOM     13  C   UNL d   1      31.844  23.702 -18.769  0.00  0.00     0.000 C 
ATOM     14  C   UNL d   1      31.958  21.514 -20.694  0.00  0.00     0.029 A 
ATOM     15  C   UNL d   1      31.290  21.616 -21.171  0.00  0.00     0.002 C 
ENDBRANCH   1   4
BRANCH   2  16
ATOM     16  C   UNL d   1      33.232  19.439 -22.243  0.00  0.00     0.085 A 
ATOM     17  C   UNL d   1      33.238  19.636 -23.044  0.00  0.00     0.021 A 
ATOM     18  C   UNL d   1      33.234  19.038 -23.604  0.00  0.00     0.021 A 
ATOM     19  C   UNL d   1      33.224  18.241 -23.372  0.00  0.00     0.085 A 
ATOM     20  C   UNL d   1      33.218  18.054 -22.568  0.00  0.00     0.021 A 
ATOM     21  C   UNL d   1      33.222  18.653 -22.000  0.00  0.00     0.021 A 
BRANCH  19  22
ATOM     22  N   UNL d   1      33.221  17.642 -23.938  0.00  0.00    -0.208 NA
ATOM     23  C   UNL d   1      32.507  17.407 -24.281  0.00  0.00     0.279 C 
ATOM     24  O   UNL d   1      31.793  17.768 -24.060  0.00  0.00    -0.265 OA
ATOM     25  C   UNL d   1      32.496  16.808 -24.848  0.00  0.00     0.068 C 
ENDBRANCH  19  22
ENDBRANCH   2  16
TORSDOF 3
ENDMDL
MODEL 4
REMARK VINA RESULT:       0.2      3.554      6.243
REMARK  3 active torsions:
REMARK  status: ('A' for Active; 'I' for Inactive)
REMARK    1  A    between atoms: C_6  and  C_1 
REMARK       I    between atoms: N_8  and  C_6 
REMARK    2  A    between atoms: C_16  and  N_8 
REMARK       I    between atoms: C_12  and  N_13 
REMARK    3  A    between atoms: N_13  and  C_17 
ROOT
ATOM      1  C   UNL d   1      32.861  22.592 -20.130  0.00  0.00     0.302 C 
ATOM      2  N   UNL d   1      32.514  23.229 -19.735  0.00  0.00    -0.206 NA
ATOM      3  O   UNL d   1      33.240  22.002 -19.706  0.00  0.00    -0.263 OA
ENDROOT
BRANCH   1   4
ATOM      4  C   UNL d   1      32.824  22.551 -20.953  0.00  0.00     0.158 A 
ATOM      5  O   UNL d   1      32.856  23.193 -21.477  0.00  0.00    -0.302 OA
ATOM      6  C   UNL d   1      32.799  22.890 -22.251  0.00  0.00     0.100 A 
ATOM      7  C   UNL d   1      32.800  23.257 -22.996  0.00  0.00     0.025 A 
ATOM      8  C   UNL d   1      32.733  22.065 -22.207  0.00  0.00     0.025 A 
ATOM      9  C   UNL d   1      32.735  22.804 -23.680  0.00  0.00     0.002 A 
ATOM     10  C   UNL d   1      32.735  23.171 -24.421  0.00  0.00     0.000 C 
ATOM     11  C   UNL d   1      32.668  21.980 -23.628  0.00  0.00     0.000 A 
ATOM     12  C   UNL d   1      32.667  21.611 -22.892  0.00  0.00     0.002 A 
ATOM     13  C   UNL d   1      32.603  21.530 -24.313  0.00  0.00     0.000 C 
ATOM     14  C   UNL d   1      32.746  21.841 -21.417  0.00  0.00     0.029 A 
ATOM     15  C   UNL d   1      32.694  21.072 -21.118  0.00  0.00     0.002 C 
ENDBRANCH   1   4
BRANCH   2  16
ATOM     16  C   UNL d   1      32.549  23.273 -18.912  0.00  0.00     0.085 A 
ATOM     17  C   UNL d   1      33.204  23.623 -18.554  0.00  0.00     0.021 A 
ATOM     18  C   UNL d   1      33.239  23.667 -17.736  0.00  0.00     0.021 A 
ATOM     19  C   UNL d   1      32.623  23.364 -17.270  0.00  0.00     0.085 A 
ATOM     20  C   UNL d   1      31.970  23.016 -17.638  0.00  0.00     0.021 A 
ATOM     21  C   UNL d   1      31.931  22.969 -18.460  0.00  0.00     0.021 A 
BRANCH  19  22
ATOM     22  N   UNL d   1      32.661  23.411 -16.449  0.00  0.00    -0.208 NA
ATOM     23  C   UNL d   1      32.884  22.747 -16.010  0.00  0.00     0.279 C 
ATOM     24  O   UNL d   1      33.069  22.033 -16.391  0.00  0.00    -0.265 OA
ATOM     25  C   UNL d   1      32.924  22.786 -15.187  0.00  0.00     0.068 C 
ENDBRANCH  19  22
ENDBRANCH   2  16
TORSDOF 3
ENDMDL
MODEL 5
REMARK VINA RESULT:       0.3      1.571      2.827
REMARK  3 active torsions:
REMARK  status: ('A' for Active; 'I' for Inactive)
REMARK    1  A    between atoms: C_6  and  C_1 
REMARK       I    between atoms: N_8  and  C_6 
REMARK    2  A    between atoms: C_16  and  N_8 
REMARK       I    between atoms: C_12  and  N_13 
REMARK    3  A    between atoms: N_13  and  C_17 
ROOT
ATOM      1  C   UNL d   1      32.553  21.204 -20.587  0.00  0.00     0.302 C 
ATOM      2  N   UNL d   1      33.224  20.923 -20.977  0.00  0.00    -0.206 NA
ATOM      3  O   UNL d   1      31.816  21.142 -20.941  0.00  0.00    -0.263 OA
ENDROOT
BRANCH   1   4
ATOM      4  C   UNL d   1      32.626  21.547 -19.840  0.00  0.00     0.158 A 
ATOM      5  O   UNL d   1      32.914  21.174 -19.157  0.00  0.00    -0.302 OA
ATOM      6  C   UNL d   1      32.887  21.730 -18.537  0.00  0.00     0.100 A 
ATOM      7  C   UNL d   1      33.099  21.684 -17.736  0.00  0.00     0.025 A 
ATOM      8  C   UNL d   1      32.583  22.442 -18.834  0.00  0.00     0.025 A 
ATOM      9  C   UNL d   1      33.008  22.337 -17.245  0.00  0.00     0.002 A 
ATOM     10  C   UNL d   1      33.220  22.289 -16.447  0.00  0.00     0.000 C 
ATOM     11  C   UNL d   1      32.704  23.046 -17.549  0.00  0.00     0.000 A 
ATOM     12  C   UNL d   1      32.492  23.097 -18.343  0.00  0.00     0.002 A 
ATOM     13  C   UNL d   1      32.614  23.698 -17.056  0.00  0.00     0.000 C 
ATOM     14  C   UNL d   1      32.418  22.346 -19.633  0.00  0.00     0.029 A 
ATOM     15  C   UNL d   1      32.108  22.913 -20.147  0.00  0.00     0.002 C 
ENDBRANCH   1   4
BRANCH   2  16
ATOM     16  C   UNL d   1      33.155  20.580 -21.724  0.00  0.00     0.085 A 
ATOM     17  C   UNL d   1      33.015  19.770 -21.784  0.00  0.00     0.021 A 
ATOM     18  C   UNL d   1      32.947  19.428 -22.526  0.00  0.00     0.021 A 
ATOM     19  C   UNL d   1      33.017  19.891 -23.212  0.00  0.00     0.085 A 
ATOM     20  C   UNL d   1      33.157  20.701 -23.142  0.00  0.00     0.021 A 
ATOM     21  C   UNL d   1      33.226  21.049 -22.397  0.00  0.00     0.021 A 
BRANCH  19  22
ATOM     22  N   UNL d   1      32.948  19.544 -23.956  0.00  0.00    -0.208 NA
ATOM     23  C   UNL d   1      32.615  18.791 -24.029  0.00  0.00     0.279 C 
ATOM     24  O   UNL d   1      32.351  18.381 -23.358  0.00  0.00    -0.265 OA
ATOM     25  C   UNL d   1      32.543  18.438 -24.771  0.00  0.00     0.068 C 
ENDBRANCH  19  22
ENDBRANCH   2  16
TORSDOF 3
ENDMDL
