MODEL 1
REMARK VINA RESULT:      62.3      0.000      0.000
REMARK  3 active torsions:
REMARK  status: ('A' for Active; 'I' for Inactive)
REMARK    1  A    between atoms: N_6  and  C_1 
REMARK       I    between atoms: C_8  and  N_6 
REMARK       I    between atoms: C_11  and  N_7 
REMARK    2  A    between atoms: C_14  and  C_8 
REMARK    3  A    between atoms: O_23  and  C_20 
ROOT
ATOM      1  C   UNL d   1      13.952  14.283  -3.448  0.00  0.00     0.124 A 
ATOM      2  C   UNL d   1      13.674  13.505  -3.458  0.00  0.00     0.093 A 
ATOM      3  C   UNL d   1      14.278  13.702  -2.289  0.00  0.00     0.049 A 
ATOM      4  C   UNL d   1      13.882  13.148  -2.729  0.00  0.00     0.021 A 
ATOM      5  S   UNL d   1      14.329  14.408  -2.719  0.00  0.00    -0.066 SA
ATOM      6  N   UNL d   1      14.429  12.746  -1.225  0.00  0.00    -0.272 N 
ATOM      7  C   UNL d   1      14.561  13.503  -1.517  0.00  0.00     0.089 A 
ATOM      8  C   UNL d   1      13.266  13.149  -4.076  0.00  0.00     0.103 C 
ATOM      9  C   UNL d   1      14.701  12.539  -0.470  0.00  0.00     0.265 C 
ATOM     10  N   UNL d   1      12.861  12.795  -4.690  0.00  0.00    -0.191 NA
ATOM     11  C   UNL d   1      13.744  12.381  -2.441  0.00  0.00     0.020 A 
ATOM     12  C   UNL d   1      14.022  12.187  -1.685  0.00  0.00     0.083 A 
ATOM     13  O   UNL d   1      15.105  13.093  -0.014  0.00  0.00    -0.267 OA
ATOM     14  C   UNL d   1      14.569  11.780  -0.175  0.00  0.00     0.066 C 
ENDROOT
BRANCH   1  15
ATOM     15  N   UNL d   1      13.870  14.843  -4.057  0.00  0.00    -0.201 NA
ATOM     16  C   UNL d   1      14.225  15.583  -3.974  0.00  0.00     0.280 C 
ATOM     17  O   UNL d   1      14.657  15.776  -3.303  0.00  0.00    -0.265 OA
BRANCH  16  18
ATOM     18  C   UNL d   1      14.145  16.138  -4.577  0.00  0.00     0.058 A 
ATOM     19  C   UNL d   1      13.591  16.030  -5.164  0.00  0.00     0.007 A 
ATOM     20  C   UNL d   1      13.509  16.590  -5.773  0.00  0.00     0.024 A 
ATOM     21  C   UNL d   1      13.992  17.254  -5.777  0.00  0.00     0.094 A 
ATOM     22  C   UNL d   1      14.552  17.367  -5.186  0.00  0.00     0.024 A 
ATOM     23  C   UNL d   1      14.633  16.812  -4.584  0.00  0.00     0.007 A 
BRANCH  21  24
ATOM     24  O   UNL d   1      13.910  17.817  -6.389  0.00  0.00    -0.328 OA
ATOM     25  C   UNL d   1      13.440  18.494  -6.282  0.00  0.00     0.181 C 
ENDBRANCH  21  24
ENDBRANCH  16  18
ENDBRANCH   1  15
TORSDOF 3
ENDMDL
