MODEL 1
REMARK VINA RESULT:      46.0      0.000      0.000
REMARK  3 active torsions:
REMARK  status: ('A' for Active; 'I' for Inactive)
REMARK    1  A    between atoms: C_5  and  C_1 
REMARK    2  A    between atoms: N_8  and  C_5 
REMARK    3  A    between atoms: C_10  and  C_5 
ROOT
ATOM      1  C   UNL d   1      45.774 -18.248  43.292  0.00  0.00     0.085 C 
ENDROOT
BRANCH   1   2
ATOM      2  C   UNL d   1      45.534 -17.536  43.648  0.00  0.00     0.059 A 
ATOM      3  C   UNL d   1      45.979 -16.852  43.517  0.00  0.00     0.214 A 
ATOM      4  C   UNL d   1      45.739 -16.148  43.871  0.00  0.00     0.121 A 
ATOM      5  O   UNL d   1      46.646 -16.874  43.045  0.00  0.00    -0.285 OA
ATOM      6  N   UNL d   1      46.184 -15.464  43.740  0.00  0.00    -0.241 NA
ATOM      7  C   UNL d   1      45.066 -16.126  44.347  0.00  0.00     0.032 A 
ATOM      8  C   UNL d   1      45.943 -14.757  44.094  0.00  0.00     0.099 A 
ATOM      9  C   UNL d   1      45.269 -14.723  44.575  0.00  0.00     0.021 A 
ATOM     10  C   UNL d   1      44.829 -15.419  44.700  0.00  0.00     0.004 A 
ATOM     11  C   UNL d   1      44.625 -16.806  44.477  0.00  0.00     0.059 A 
ATOM     12  C   UNL d   1      44.861 -17.518  44.124  0.00  0.00     0.016 A 
ATOM     13 CL   UNL d   1      43.955 -16.784  44.951  0.00  0.00    -0.082 Cl
ENDBRANCH   1   2
BRANCH   1  14
ATOM     14  N   UNL d   1      46.045 -18.867  43.751  0.00  0.00    -0.302 N 
ATOM     15  C   UNL d   1      45.993 -19.649  43.474  0.00  0.00     0.080 A 
ATOM     16  C   UNL d   1      46.268 -20.277  43.939  0.00  0.00     0.019 A 
ATOM     17  C   UNL d   1      46.593 -20.117  44.676  0.00  0.00     0.003 A 
ATOM     18  C   UNL d   1      46.647 -19.344  44.953  0.00  0.00     0.019 A 
ATOM     19  C   UNL d   1      46.376 -18.726  44.495  0.00  0.00     0.080 A 
ENDBRANCH   1  14
BRANCH   1  20
ATOM     20  C   UNL d   1      45.734 -18.320  42.470  0.00  0.00     0.098 A 
ATOM     21  N   UNL d   1      45.004 -18.253  42.085  0.00  0.00    -0.243 NA
ATOM     22  C   UNL d   1      44.959 -18.323  41.275  0.00  0.00     0.099 A 
ATOM     23  C   UNL d   1      45.644 -18.463  40.831  0.00  0.00     0.021 A 
ATOM     24  C   UNL d   1      46.375 -18.531  41.210  0.00  0.00     0.003 A 
ATOM     25  C   UNL d   1      46.416 -18.459  42.027  0.00  0.00     0.021 A 
ENDBRANCH   1  20
TORSDOF 3
ENDMDL
MODEL 2
REMARK VINA RESULT:      47.4      1.539      3.905
REMARK  3 active torsions:
REMARK  status: ('A' for Active; 'I' for Inactive)
REMARK    1  A    between atoms: C_5  and  C_1 
REMARK    2  A    between atoms: N_8  and  C_5 
REMARK    3  A    between atoms: C_10  and  C_5 
ROOT
ATOM      1  C   UNL d   1      45.932 -18.384  43.385  0.00  0.00     0.085 C 
ENDROOT
BRANCH   1   2
ATOM      2  C   UNL d   1      46.105 -18.516  42.583  0.00  0.00     0.059 A 
ATOM      3  C   UNL d   1      46.125 -19.291  42.298  0.00  0.00     0.214 A 
ATOM      4  C   UNL d   1      46.297 -19.417  41.503  0.00  0.00     0.121 A 
ATOM      5  O   UNL d   1      45.975 -19.921  42.797  0.00  0.00    -0.285 OA
ATOM      6  N   UNL d   1      46.316 -20.193  41.218  0.00  0.00    -0.241 NA
ATOM      7  C   UNL d   1      46.447 -18.782  40.999  0.00  0.00     0.032 A 
ATOM      8  C   UNL d   1      46.488 -20.322  40.419  0.00  0.00     0.099 A 
ATOM      9  C   UNL d   1      46.641 -19.691  39.904  0.00  0.00     0.021 A 
ATOM     10  C   UNL d   1      46.619 -18.914  40.203  0.00  0.00     0.004 A 
ATOM     11  C   UNL d   1      46.428 -18.012  41.283  0.00  0.00     0.059 A 
ATOM     12  C   UNL d   1      46.255 -17.877  42.083  0.00  0.00     0.016 A 
ATOM     13 CL   UNL d   1      46.578 -17.379  40.782  0.00  0.00    -0.082 Cl
ENDBRANCH   1   2
BRANCH   1  14
ATOM     14  N   UNL d   1      45.753 -17.632  43.650  0.00  0.00    -0.302 N 
ATOM     15  C   UNL d   1      46.322 -17.183  44.055  0.00  0.00     0.080 A 
ATOM     16  C   UNL d   1      46.140 -16.421  44.325  0.00  0.00     0.019 A 
ATOM     17  C   UNL d   1      45.390 -16.116  44.186  0.00  0.00     0.003 A 
ATOM     18  C   UNL d   1      44.824 -16.558  43.785  0.00  0.00     0.019 A 
ATOM     19  C   UNL d   1      45.003 -17.309  43.520  0.00  0.00     0.080 A 
ENDBRANCH   1  14
BRANCH   1  20
ATOM     20  C   UNL d   1      45.944 -19.023  43.909  0.00  0.00     0.098 A 
ATOM     21  N   UNL d   1      45.259 -19.471  44.029  0.00  0.00    -0.243 NA
ATOM     22  C   UNL d   1      45.264 -20.101  44.544  0.00  0.00     0.099 A 
ATOM     23  C   UNL d   1      45.959 -20.299  44.952  0.00  0.00     0.021 A 
ATOM     24  C   UNL d   1      46.646 -19.855  44.835  0.00  0.00     0.003 A 
ATOM     25  C   UNL d   1      46.635 -19.219  44.315  0.00  0.00     0.021 A 
ENDBRANCH   1  20
TORSDOF 3
ENDMDL
