MODEL 1
REMARK VINA RESULT:      85.6      0.000      0.000
REMARK  4 active torsions:
REMARK  status: ('A' for Active; 'I' for Inactive)
REMARK    1  A    between atoms: N_2  and  S_1 
REMARK    2  A    between atoms: C_5  and  S_1 
REMARK    3  A    between atoms: C_4  and  C_3 
REMARK    4  A    between atoms: C_12  and  C_3 
ROOT
ATOM      1  N   UNL d   1      59.881  49.184  50.788  0.00  0.00    -0.230 N 
ATOM      2  C   UNL d   1      58.273  48.934  50.517  0.00  0.00     0.137 A 
ATOM      3  C   UNL d   1      58.837  48.541  50.073  0.00  0.00     0.011 A 
ATOM      4  C   UNL d   1      58.520  49.460  51.104  0.00  0.00     0.011 A 
ATOM      5  C   UNL d   1      59.324  49.584  51.240  0.00  0.00     0.088 A 
ATOM      6  C   UNL d   1      59.641  48.665  50.209  0.00  0.00     0.088 A 
ENDROOT
BRANCH   1   7
ATOM      7  S   UNL d   1      60.685  49.308  50.924  0.00  0.00     0.271 S 
ATOM      8  O   UNL d   1      61.209  49.349  50.290  0.00  0.00    -0.200 OA
ATOM      9  O   UNL d   1      60.605  49.250  50.107  0.00  0.00    -0.200 OA
BRANCH   7  10
ATOM     10  C   UNL d   1      60.965  49.393  51.694  0.00  0.00     0.104 A 
ATOM     11  C   UNL d   1      60.441  49.405  52.320  0.00  0.00     0.013 A 
ATOM     12  C   UNL d   1      60.714  49.489  53.096  0.00  0.00     0.001 A 
ATOM     13  C   UNL d   1      61.535  49.562  53.232  0.00  0.00     0.000 A 
ATOM     14  C   UNL d   1      62.058  49.549  52.595  0.00  0.00     0.001 A 
ATOM     15  C   UNL d   1      61.809  49.646  54.009  0.00  0.00     0.000 C 
ATOM     16  C   UNL d   1      61.773  49.465  51.831  0.00  0.00     0.013 A 
ENDBRANCH   7  10
ENDBRANCH   1   7
BRANCH   2  17
ATOM     17  C   UNL d   1      57.947  49.445  51.091  0.00  0.00     0.196 C 
ATOM     18  O   UNL d   1      58.397  49.701  51.724  0.00  0.00    -0.647 OA
ATOM     19  O   UNL d   1      57.163  49.692  51.014  0.00  0.00    -0.647 OA
ENDBRANCH   2  17
BRANCH   2  20
ATOM     20  C   UNL d   1      57.539  48.681  50.237  0.00  0.00    -0.005 A 
ATOM     21  C   UNL d   1      57.168  49.114  49.643  0.00  0.00    -0.003 A 
ATOM     22  C   UNL d   1      56.432  48.866  49.358  0.00  0.00    -0.000 A 
ATOM     23  C   UNL d   1      56.069  48.188  49.666  0.00  0.00    -0.000 A 
ATOM     24  C   UNL d   1      56.452  47.759  50.265  0.00  0.00    -0.000 A 
ATOM     25  C   UNL d   1      57.180  48.009  50.543  0.00  0.00    -0.003 A 
ENDBRANCH   2  20
TORSDOF 4
ENDMDL
