MODEL 1
REMARK VINA RESULT:      -4.5      0.000      0.000
REMARK  4 active torsions:
REMARK  status: ('A' for Active; 'I' for Inactive)
REMARK    1  A    between atoms: S_2  and  C_1 
REMARK    2  A    between atoms: C_7  and  S_2 
REMARK    3  A    between atoms: O_13  and  C_6 
REMARK    4  A    between atoms: C_17  and  O_13 
ROOT
ATOM      1  S   UNL d   1      57.716  -0.032  30.936  0.00  0.00     0.228 S 
ATOM      2  O   UNL d   1      57.345  -0.677  30.613  0.00  0.00    -0.216 OA
ATOM      3  O   UNL d   1      58.047   0.625  31.316  0.00  0.00    -0.216 OA
ENDROOT
BRANCH   1   4
ATOM      4  C   UNL d   1      58.263  -0.009  30.367  0.00  0.00     0.188 A 
ATOM      5  N   UNL d   1      59.037  -0.278  30.342  0.00  0.00    -0.203 NA
ATOM      6  C   UNL d   1      59.323  -0.087  29.581  0.00  0.00     0.217 A 
ATOM      7  S   UNL d   1      58.767   0.271  29.175  0.00  0.00    -0.029 SA
ATOM      8  C   UNL d   1      58.096   0.333  29.639  0.00  0.00     0.119 A 
ATOM      9 CL   UNL d   1      57.359   0.682  29.421  0.00  0.00    -0.073 Cl
BRANCH   6  10
ATOM     10  O   UNL d   1      60.106  -0.251  29.278  0.00  0.00    -0.282 OA
BRANCH  10  11
ATOM     11  C   UNL d   1      60.364  -1.009  29.174  0.00  0.00     0.125 C 
ATOM     12  C   UNL d   1      61.133  -1.152  28.947  0.00  0.00     0.029 C 
ENDBRANCH  10  11
ENDBRANCH   6  10
ENDBRANCH   1   4
BRANCH   1  13
ATOM     13  C   UNL d   1      57.127  -0.050  31.557  0.00  0.00     0.089 A 
ATOM     14  C   UNL d   1      56.808   0.653  31.881  0.00  0.00     0.011 A 
ATOM     15  C   UNL d   1      56.252   0.623  32.468  0.00  0.00     0.001 A 
ATOM     16  C   UNL d   1      56.009  -0.118  32.737  0.00  0.00     0.000 A 
ATOM     17  C   UNL d   1      56.308  -0.796  32.433  0.00  0.00     0.001 A 
ATOM     18  C   UNL d   1      55.434  -0.180  33.345  0.00  0.00     0.000 C 
ATOM     19  C   UNL d   1      56.879  -0.791  31.832  0.00  0.00     0.011 A 
ENDBRANCH   1  13
TORSDOF 4
ENDMDL
MODEL 2
REMARK VINA RESULT:      -4.5      1.354      1.754
REMARK  4 active torsions:
REMARK  status: ('A' for Active; 'I' for Inactive)
REMARK    1  A    between atoms: S_2  and  C_1 
REMARK    2  A    between atoms: C_7  and  S_2 
REMARK    3  A    between atoms: O_13  and  C_6 
REMARK    4  A    between atoms: C_17  and  O_13 
ROOT
ATOM      1  S   UNL d   1      56.855  -0.071  31.865  0.00  0.00     0.228 S 
ATOM      2  O   UNL d   1      56.622   0.678  31.662  0.00  0.00    -0.216 OA
ATOM      3  O   UNL d   1      57.048  -0.833  32.125  0.00  0.00    -0.216 OA
ENDROOT
BRANCH   1   4
ATOM      4  C   UNL d   1      57.369  -0.119  31.268  0.00  0.00     0.188 A 
ATOM      5  N   UNL d   1      57.312  -0.460  30.524  0.00  0.00    -0.203 NA
ATOM      6  C   UNL d   1      58.047  -0.323  30.151  0.00  0.00     0.217 A 
ATOM      7  S   UNL d   1      58.514   0.070  30.630  0.00  0.00    -0.029 SA
ATOM      8  C   UNL d   1      58.118   0.211  31.332  0.00  0.00     0.119 A 
ATOM      9 CL   UNL d   1      58.415   0.620  32.008  0.00  0.00    -0.073 Cl
BRANCH   6  10
ATOM     10  O   UNL d   1      58.268  -0.570  29.362  0.00  0.00    -0.282 OA
BRANCH  10  11
ATOM     11  C   UNL d   1      58.822  -1.145  29.245  0.00  0.00     0.125 C 
ATOM     12  C   UNL d   1      58.985  -1.409  28.491  0.00  0.00     0.029 C 
ENDBRANCH  10  11
ENDBRANCH   6  10
ENDBRANCH   1   4
BRANCH   1  13
ATOM     13  C   UNL d   1      56.300  -0.029  32.516  0.00  0.00     0.089 A 
ATOM     14  C   UNL d   1      56.228  -0.648  33.074  0.00  0.00     0.011 A 
ATOM     15  C   UNL d   1      55.699  -0.596  33.684  0.00  0.00     0.001 A 
ATOM     16  C   UNL d   1      55.235   0.084  33.740  0.00  0.00     0.000 A 
ATOM     17  C   UNL d   1      55.297   0.682  33.212  0.00  0.00     0.001 A 
ATOM     18  C   UNL d   1      54.678   0.167  34.363  0.00  0.00     0.000 C 
ATOM     19  C   UNL d   1      55.831   0.651  32.578  0.00  0.00     0.011 A 
ENDBRANCH   1  13
TORSDOF 4
ENDMDL
MODEL 3
REMARK VINA RESULT:      -4.0      1.753      4.358
REMARK  4 active torsions:
REMARK  status: ('A' for Active; 'I' for Inactive)
REMARK    1  A    between atoms: S_2  and  C_1 
REMARK    2  A    between atoms: C_7  and  S_2 
REMARK    3  A    between atoms: O_13  and  C_6 
REMARK    4  A    between atoms: C_17  and  O_13 
ROOT
ATOM      1  S   UNL d   1      57.410   0.258  31.586  0.00  0.00     0.228 S 
ATOM      2  O   UNL d   1      58.028   0.349  32.103  0.00  0.00    -0.216 OA
ATOM      3  O   UNL d   1      56.824   0.173  31.007  0.00  0.00    -0.216 OA
ENDROOT
BRANCH   1   4
ATOM      4  C   UNL d   1      56.884   0.159  32.167  0.00  0.00     0.188 A 
ATOM      5  N   UNL d   1      56.581   0.680  32.722  0.00  0.00    -0.203 NA
ATOM      6  C   UNL d   1      56.043   0.237  33.185  0.00  0.00     0.217 A 
ATOM      7  S   UNL d   1      56.022  -0.496  32.929  0.00  0.00    -0.029 SA
ATOM      8  C   UNL d   1      56.536  -0.573  32.297  0.00  0.00     0.119 A 
ATOM      9 CL   UNL d   1      56.688  -1.272  31.850  0.00  0.00    -0.073 Cl
BRANCH   6  10
ATOM     10  O   UNL d   1      55.579   0.528  33.841  0.00  0.00    -0.282 OA
BRANCH  10  11
ATOM     11  C   UNL d   1      54.804   0.324  33.929  0.00  0.00     0.125 C 
ATOM     12  C   UNL d   1      54.366   0.631  34.545  0.00  0.00     0.029 C 
ENDBRANCH  10  11
ENDBRANCH   6  10
ENDBRANCH   1   4
BRANCH   1  13
ATOM     13  C   UNL d   1      57.973   0.364  30.950  0.00  0.00     0.089 A 
ATOM     14  C   UNL d   1      57.748   0.296  30.147  0.00  0.00     0.011 A 
ATOM     15  C   UNL d   1      58.289   0.398  29.555  0.00  0.00     0.001 A 
ATOM     16  C   UNL d   1      59.068   0.571  29.765  0.00  0.00     0.000 A 
ATOM     17  C   UNL d   1      59.294   0.637  30.530  0.00  0.00     0.001 A 
ATOM     18  C   UNL d   1      59.653   0.682  29.173  0.00  0.00     0.000 C 
ATOM     19  C   UNL d   1      58.757   0.537  31.155  0.00  0.00     0.011 A 
ENDBRANCH   1  13
TORSDOF 4
ENDMDL
MODEL 4
REMARK VINA RESULT:      -2.8      2.642      4.971
REMARK  4 active torsions:
REMARK  status: ('A' for Active; 'I' for Inactive)
REMARK    1  A    between atoms: S_2  and  C_1 
REMARK    2  A    between atoms: C_7  and  S_2 
REMARK    3  A    between atoms: O_13  and  C_6 
REMARK    4  A    between atoms: C_17  and  O_13 
ROOT
ATOM      1  S   UNL d   1      56.265   0.092  32.727  0.00  0.00     0.228 S 
ATOM      2  O   UNL d   1      56.796   0.682  32.891  0.00  0.00    -0.216 OA
ATOM      3  O   UNL d   1      55.761  -0.527  32.505  0.00  0.00    -0.216 OA
ENDROOT
BRANCH   1   4
ATOM      4  C   UNL d   1      55.806   0.275  33.343  0.00  0.00     0.188 A 
ATOM      5  N   UNL d   1      54.992   0.331  33.422  0.00  0.00    -0.203 NA
ATOM      6  C   UNL d   1      54.851   0.548  34.216  0.00  0.00     0.217 A 
ATOM      7  S   UNL d   1      55.526   0.619  34.591  0.00  0.00    -0.029 SA
ATOM      8  C   UNL d   1      56.138   0.455  34.072  0.00  0.00     0.119 A 
ATOM      9 CL   UNL d   1      56.964   0.466  34.244  0.00  0.00    -0.073 Cl
BRANCH   6  10
ATOM     10  O   UNL d   1      54.086   0.676  34.578  0.00  0.00    -0.282 OA
BRANCH  10  11
ATOM     11  C   UNL d   1      53.411   0.682  34.137  0.00  0.00     0.125 C 
ATOM     12  C   UNL d   1      52.683   0.651  34.502  0.00  0.00     0.029 C 
ENDBRANCH  10  11
ENDBRANCH   6  10
ENDBRANCH   1   4
BRANCH   1  13
ATOM     13  C   UNL d   1      56.755  -0.114  32.056  0.00  0.00     0.089 A 
ATOM     14  C   UNL d   1      57.180   0.466  31.628  0.00  0.00     0.011 A 
ATOM     15  C   UNL d   1      57.640   0.259  30.995  0.00  0.00     0.001 A 
ATOM     16  C   UNL d   1      57.678  -0.538  30.786  0.00  0.00     0.000 A 
ATOM     17  C   UNL d   1      57.275  -1.100  31.189  0.00  0.00     0.001 A 
ATOM     18  C   UNL d   1      58.147  -0.784  30.134  0.00  0.00     0.000 C 
ATOM     19  C   UNL d   1      56.797  -0.912  31.840  0.00  0.00     0.011 A 
ENDBRANCH   1  13
TORSDOF 4
ENDMDL
MODEL 5
REMARK VINA RESULT:      -2.5      1.437      4.116
REMARK  4 active torsions:
REMARK  status: ('A' for Active; 'I' for Inactive)
REMARK    1  A    between atoms: S_2  and  C_1 
REMARK    2  A    between atoms: C_7  and  S_2 
REMARK    3  A    between atoms: O_13  and  C_6 
REMARK    4  A    between atoms: C_17  and  O_13 
ROOT
ATOM      1  S   UNL d   1      58.778  -1.149  29.574  0.00  0.00     0.228 S 
ATOM      2  O   UNL d   1      58.147  -1.515  29.221  0.00  0.00    -0.216 OA
ATOM      3  O   UNL d   1      59.462  -0.826  29.912  0.00  0.00    -0.216 OA
ENDROOT
BRANCH   1   4
ATOM      4  C   UNL d   1      58.335  -0.552  29.841  0.00  0.00     0.188 A 
ATOM      5  N   UNL d   1      57.848  -0.484  30.496  0.00  0.00    -0.203 NA
ATOM      6  C   UNL d   1      57.533   0.290  30.471  0.00  0.00     0.217 A 
ATOM      7  S   UNL d   1      57.809   0.663  29.850  0.00  0.00    -0.029 SA
ATOM      8  C   UNL d   1      58.311   0.164  29.439  0.00  0.00     0.119 A 
ATOM      9 CL   UNL d   1      58.732   0.340  28.729  0.00  0.00    -0.073 Cl
BRANCH   6  10
ATOM     10  O   UNL d   1      56.991   0.635  31.036  0.00  0.00    -0.282 OA
BRANCH  10  11
ATOM     11  C   UNL d   1      57.147   0.623  31.827  0.00  0.00     0.125 C 
ATOM     12  C   UNL d   1      56.538   0.682  32.366  0.00  0.00     0.029 C 
ENDBRANCH  10  11
ENDBRANCH   6  10
ENDBRANCH   1   4
BRANCH   1  13
ATOM     13  C   UNL d   1      59.266  -1.792  29.289  0.00  0.00     0.089 A 
ATOM     14  C   UNL d   1      58.935  -2.525  29.057  0.00  0.00     0.011 A 
ATOM     15  C   UNL d   1      59.406  -3.125  28.789  0.00  0.00     0.001 A 
ATOM     16  C   UNL d   1      60.220  -2.994  28.751  0.00  0.00     0.000 A 
ATOM     17  C   UNL d   1      60.546  -2.297  28.970  0.00  0.00     0.001 A 
ATOM     18  C   UNL d   1      60.735  -3.598  28.477  0.00  0.00     0.000 C 
ATOM     19  C   UNL d   1      60.083  -1.667  29.248  0.00  0.00     0.011 A 
ENDBRANCH   1  13
TORSDOF 4
ENDMDL
