MODEL 1
REMARK VINA RESULT:      -6.6      0.000      0.000
REMARK  10 active torsions:
REMARK  status: ('A' for Active; 'I' for Inactive)
REMARK       I    between atoms: N_8  and  C_1 
REMARK    1  A    between atoms: C_11  and  C_1 
REMARK    2  A    between atoms: C_2  and  C_12 
REMARK       I    between atoms: N_7  and  C_2 
REMARK    3  A    between atoms: C_3  and  C_19 
REMARK    4  A    between atoms: C_4  and  C_20 
REMARK    5  A    between atoms: C_19  and  N_7 
REMARK    6  A    between atoms: C_20  and  N_8 
REMARK    7  A    between atoms: C_23  and  C_11 
REMARK    8  A    between atoms: C_12  and  C_22 
REMARK    9  A    between atoms: S_21  and  C_23 
REMARK   10  A    between atoms: C_22  and  S_21 
ROOT
ATOM      1  S   UNL d   1      50.034  34.503  52.523  0.00  0.00    -0.086 SA
ENDROOT
BRANCH   1   2
ATOM      2  C   UNL d   1      49.520  35.037  52.917  0.00  0.00     0.040 C 
BRANCH   2   3
ATOM      3  C   UNL d   1      48.785  35.235  52.570  0.00  0.00     0.070 C 
BRANCH   3   4
ATOM      4  C   UNL d   1      48.307  35.827  52.940  0.00  0.00     0.280 C 
ATOM      5  N   UNL d   1      47.538  36.021  52.598  0.00  0.00    -0.204 NA
ATOM      6  O   UNL d   1      48.574  36.224  53.629  0.00  0.00    -0.265 OA
BRANCH   5   7
ATOM      7  C   UNL d   1      47.271  35.639  51.927  0.00  0.00     0.127 C 
BRANCH   7   8
ATOM      8  C   UNL d   1      46.503  35.752  51.651  0.00  0.00     0.119 A 
ATOM      9  O   UNL d   1      46.238  35.286  50.986  0.00  0.00    -0.304 OA
ATOM     10  C   UNL d   1      45.451  35.528  50.845  0.00  0.00     0.123 A 
ATOM     11  C   UNL d   1      45.223  36.099  51.369  0.00  0.00     0.029 A 
ATOM     12  C   UNL d   1      45.887  36.237  51.873  0.00  0.00     0.028 A 
ENDBRANCH   7   8
ENDBRANCH   5   7
ENDBRANCH   3   4
ENDBRANCH   2   3
ENDBRANCH   1   2
BRANCH   1  13
ATOM     13  C   UNL d   1      50.766  34.312  52.897  0.00  0.00     0.040 C 
BRANCH  13  14
ATOM     14  C   UNL d   1      51.393  33.960  52.441  0.00  0.00     0.070 C 
BRANCH  14  15
ATOM     15  C   UNL d   1      52.032  33.628  52.836  0.00  0.00     0.280 C 
ATOM     16  N   UNL d   1      52.220  32.794  52.700  0.00  0.00    -0.204 NA
ATOM     17  O   UNL d   1      52.508  34.067  53.366  0.00  0.00    -0.265 OA
BRANCH  16  18
ATOM     18  C   UNL d   1      52.850  32.481  53.095  0.00  0.00     0.127 C 
BRANCH  18  19
ATOM     19  C   UNL d   1      52.987  31.652  53.113  0.00  0.00     0.119 A 
ATOM     20  O   UNL d   1      52.639  31.088  52.620  0.00  0.00    -0.304 OA
ATOM     21  C   UNL d   1      52.955  30.322  52.854  0.00  0.00     0.123 A 
ATOM     22  C   UNL d   1      53.460  30.470  53.456  0.00  0.00     0.029 A 
ATOM     23  C   UNL d   1      53.486  31.248  53.616  0.00  0.00     0.028 A 
ENDBRANCH  18  19
ENDBRANCH  16  18
ENDBRANCH  14  15
ENDBRANCH  13  14
ENDBRANCH   1  13
TORSDOF 10
ENDMDL
MODEL 2
REMARK VINA RESULT:      -6.5      1.267      1.578
REMARK  10 active torsions:
REMARK  status: ('A' for Active; 'I' for Inactive)
REMARK       I    between atoms: N_8  and  C_1 
REMARK    1  A    between atoms: C_11  and  C_1 
REMARK    2  A    between atoms: C_2  and  C_12 
REMARK       I    between atoms: N_7  and  C_2 
REMARK    3  A    between atoms: C_3  and  C_19 
REMARK    4  A    between atoms: C_4  and  C_20 
REMARK    5  A    between atoms: C_19  and  N_7 
REMARK    6  A    between atoms: C_20  and  N_8 
REMARK    7  A    between atoms: C_23  and  C_11 
REMARK    8  A    between atoms: C_12  and  C_22 
REMARK    9  A    between atoms: S_21  and  C_23 
REMARK   10  A    between atoms: C_22  and  S_21 
ROOT
ATOM      1  S   UNL d   1      50.178  34.490  52.528  0.00  0.00    -0.086 SA
ENDROOT
BRANCH   1   2
ATOM      2  C   UNL d   1      49.590  34.907  52.959  0.00  0.00     0.040 C 
BRANCH   2   3
ATOM      3  C   UNL d   1      48.913  35.196  52.562  0.00  0.00     0.070 C 
BRANCH   3   4
ATOM      4  C   UNL d   1      48.435  35.780  52.945  0.00  0.00     0.280 C 
ATOM      5  N   UNL d   1      47.664  35.976  52.612  0.00  0.00    -0.204 NA
ATOM      6  O   UNL d   1      48.704  36.166  53.640  0.00  0.00    -0.265 OA
BRANCH   5   7
ATOM      7  C   UNL d   1      47.394  35.606  51.935  0.00  0.00     0.127 C 
BRANCH   7   8
ATOM      8  C   UNL d   1      46.628  35.731  51.659  0.00  0.00     0.119 A 
ATOM      9  O   UNL d   1      46.343  35.244  51.018  0.00  0.00    -0.304 OA
ATOM     10  C   UNL d   1      45.563  35.504  50.870  0.00  0.00     0.123 A 
ATOM     11  C   UNL d   1      45.358  36.106  51.369  0.00  0.00     0.029 A 
ATOM     12  C   UNL d   1      46.030  36.245  51.863  0.00  0.00     0.028 A 
ENDBRANCH   7   8
ENDBRANCH   5   7
ENDBRANCH   3   4
ENDBRANCH   2   3
ENDBRANCH   1   2
BRANCH   1  13
ATOM     13  C   UNL d   1      50.673  33.955  52.953  0.00  0.00     0.040 C 
BRANCH  13  14
ATOM     14  C   UNL d   1      51.509  33.939  52.793  0.00  0.00     0.070 C 
BRANCH  14  15
ATOM     15  C   UNL d   1      51.966  33.346  53.134  0.00  0.00     0.280 C 
ATOM     16  N   UNL d   1      52.705  33.564  53.529  0.00  0.00    -0.204 NA
ATOM     17  O   UNL d   1      51.742  32.541  53.113  0.00  0.00    -0.265 OA
BRANCH  16  18
ATOM     18  C   UNL d   1      53.144  32.972  53.858  0.00  0.00     0.127 C 
BRANCH  18  19
ATOM     19  C   UNL d   1      53.859  33.135  54.269  0.00  0.00     0.119 A 
ATOM     20  O   UNL d   1      54.603  33.247  53.930  0.00  0.00    -0.304 OA
ATOM     21  C   UNL d   1      55.152  33.397  54.577  0.00  0.00     0.123 A 
ATOM     22  C   UNL d   1      54.715  33.367  55.245  0.00  0.00     0.029 A 
ATOM     23  C   UNL d   1      53.954  33.214  55.076  0.00  0.00     0.028 A 
ENDBRANCH  18  19
ENDBRANCH  16  18
ENDBRANCH  14  15
ENDBRANCH  13  14
ENDBRANCH   1  13
TORSDOF 10
ENDMDL
MODEL 3
REMARK VINA RESULT:      -6.4      1.556      7.028
REMARK  10 active torsions:
REMARK  status: ('A' for Active; 'I' for Inactive)
REMARK       I    between atoms: N_8  and  C_1 
REMARK    1  A    between atoms: C_11  and  C_1 
REMARK    2  A    between atoms: C_2  and  C_12 
REMARK       I    between atoms: N_7  and  C_2 
REMARK    3  A    between atoms: C_3  and  C_19 
REMARK    4  A    between atoms: C_4  and  C_20 
REMARK    5  A    between atoms: C_19  and  N_7 
REMARK    6  A    between atoms: C_20  and  N_8 
REMARK    7  A    between atoms: C_23  and  C_11 
REMARK    8  A    between atoms: C_12  and  C_22 
REMARK    9  A    between atoms: S_21  and  C_23 
REMARK   10  A    between atoms: C_22  and  S_21 
ROOT
ATOM      1  S   UNL d   1      50.457  34.394  52.871  0.00  0.00    -0.086 SA
ENDROOT
BRANCH   1   2
ATOM      2  C   UNL d   1      51.060  33.841  52.684  0.00  0.00     0.040 C 
BRANCH   2   3
ATOM      3  C   UNL d   1      51.740  33.789  53.169  0.00  0.00     0.070 C 
BRANCH   3   4
ATOM      4  C   UNL d   1      52.293  33.166  53.028  0.00  0.00     0.280 C 
ATOM      5  N   UNL d   1      52.983  33.092  53.541  0.00  0.00    -0.204 NA
ATOM      6  O   UNL d   1      52.178  32.624  52.397  0.00  0.00    -0.265 OA
BRANCH   5   7
ATOM      7  C   UNL d   1      53.104  33.616  54.157  0.00  0.00     0.127 C 
BRANCH   7   8
ATOM      8  C   UNL d   1      53.781  33.573  54.625  0.00  0.00     0.119 A 
ATOM      9  O   UNL d   1      54.298  34.252  54.653  0.00  0.00    -0.304 OA
ATOM     10  C   UNL d   1      54.921  34.037  55.165  0.00  0.00     0.123 A 
ATOM     11  C   UNL d   1      54.821  33.286  55.445  0.00  0.00     0.029 A 
ATOM     12  C   UNL d   1      54.103  32.998  55.104  0.00  0.00     0.028 A 
ENDBRANCH   7   8
ENDBRANCH   5   7
ENDBRANCH   3   4
ENDBRANCH   2   3
ENDBRANCH   1   2
BRANCH   1  13
ATOM     13  C   UNL d   1      49.806  34.463  52.339  0.00  0.00     0.040 C 
BRANCH  13  14
ATOM     14  C   UNL d   1      49.190  35.029  52.499  0.00  0.00     0.070 C 
BRANCH  14  15
ATOM     15  C   UNL d   1      48.582  35.117  51.953  0.00  0.00     0.280 C 
ATOM     16  N   UNL d   1      47.870  35.550  52.188  0.00  0.00    -0.204 NA
ATOM     17  O   UNL d   1      48.626  34.803  51.179  0.00  0.00    -0.265 OA
BRANCH  16  18
ATOM     18  C   UNL d   1      47.281  35.628  51.642  0.00  0.00     0.127 C 
BRANCH  18  19
ATOM     19  C   UNL d   1      46.543  35.977  51.843  0.00  0.00     0.119 A 
ATOM     20  O   UNL d   1      46.407  36.519  52.451  0.00  0.00    -0.304 OA
ATOM     21  C   UNL d   1      45.567  36.709  52.433  0.00  0.00     0.123 A 
ATOM     22  C   UNL d   1      45.260  36.282  51.832  0.00  0.00     0.029 A 
ATOM     23  C   UNL d   1      45.824  35.849  51.478  0.00  0.00     0.028 A 
ENDBRANCH  18  19
ENDBRANCH  16  18
ENDBRANCH  14  15
ENDBRANCH  13  14
ENDBRANCH   1  13
TORSDOF 10
ENDMDL
MODEL 4
REMARK VINA RESULT:      -6.4      0.637      6.840
REMARK  10 active torsions:
REMARK  status: ('A' for Active; 'I' for Inactive)
REMARK       I    between atoms: N_8  and  C_1 
REMARK    1  A    between atoms: C_11  and  C_1 
REMARK    2  A    between atoms: C_2  and  C_12 
REMARK       I    between atoms: N_7  and  C_2 
REMARK    3  A    between atoms: C_3  and  C_19 
REMARK    4  A    between atoms: C_4  and  C_20 
REMARK    5  A    between atoms: C_19  and  N_7 
REMARK    6  A    between atoms: C_20  and  N_8 
REMARK    7  A    between atoms: C_23  and  C_11 
REMARK    8  A    between atoms: C_12  and  C_22 
REMARK    9  A    between atoms: S_21  and  C_23 
REMARK   10  A    between atoms: C_22  and  S_21 
ROOT
ATOM      1  S   UNL d   1      50.503  34.226  52.639  0.00  0.00    -0.086 SA
ENDROOT
BRANCH   1   2
ATOM      2  C   UNL d   1      51.269  34.189  52.980  0.00  0.00     0.040 C 
BRANCH   2   3
ATOM      3  C   UNL d   1      51.741  33.507  52.864  0.00  0.00     0.070 C 
BRANCH   3   4
ATOM      4  C   UNL d   1      52.509  33.480  53.217  0.00  0.00     0.280 C 
ATOM      5  N   UNL d   1      52.918  32.722  53.275  0.00  0.00    -0.204 NA
ATOM      6  O   UNL d   1      52.872  34.177  53.510  0.00  0.00    -0.265 OA
BRANCH   5   7
ATOM      7  C   UNL d   1      52.571  32.037  52.992  0.00  0.00     0.127 C 
BRANCH   7   8
ATOM      8  C   UNL d   1      52.892  31.297  53.162  0.00  0.00     0.119 A 
ATOM      9  O   UNL d   1      52.418  30.605  53.005  0.00  0.00    -0.304 OA
ATOM     10  C   UNL d   1      52.892  29.955  53.233  0.00  0.00     0.123 A 
ATOM     11  C   UNL d   1      53.609  30.201  53.512  0.00  0.00     0.029 A 
ATOM     12  C   UNL d   1      53.605  31.046  53.466  0.00  0.00     0.028 A 
ENDBRANCH   7   8
ENDBRANCH   5   7
ENDBRANCH   3   4
ENDBRANCH   2   3
ENDBRANCH   1   2
BRANCH   1  13
ATOM     13  C   UNL d   1      49.965  34.801  52.941  0.00  0.00     0.040 C 
BRANCH  13  14
ATOM     14  C   UNL d   1      49.243  34.965  52.519  0.00  0.00     0.070 C 
BRANCH  14  15
ATOM     15  C   UNL d   1      48.717  35.513  52.833  0.00  0.00     0.280 C 
ATOM     16  N   UNL d   1      47.964  35.647  52.427  0.00  0.00    -0.204 NA
ATOM     17  O   UNL d   1      48.883  35.945  53.530  0.00  0.00    -0.265 OA
BRANCH  16  18
ATOM     18  C   UNL d   1      47.457  36.188  52.746  0.00  0.00     0.127 C 
BRANCH  18  19
ATOM     19  C   UNL d   1      46.683  36.297  52.437  0.00  0.00     0.119 A 
ATOM     20  O   UNL d   1      46.412  36.047  51.697  0.00  0.00    -0.304 OA
ATOM     21  C   UNL d   1      45.587  36.287  51.640  0.00  0.00     0.123 A 
ATOM     22  C   UNL d   1      45.418  36.655  52.329  0.00  0.00     0.029 A 
ATOM     23  C   UNL d   1      46.055  36.666  52.804  0.00  0.00     0.028 A 
ENDBRANCH  18  19
ENDBRANCH  16  18
ENDBRANCH  14  15
ENDBRANCH  13  14
ENDBRANCH   1  13
TORSDOF 10
ENDMDL
MODEL 5
REMARK VINA RESULT:      -5.8      1.820      2.394
REMARK  10 active torsions:
REMARK  status: ('A' for Active; 'I' for Inactive)
REMARK       I    between atoms: N_8  and  C_1 
REMARK    1  A    between atoms: C_11  and  C_1 
REMARK    2  A    between atoms: C_2  and  C_12 
REMARK       I    between atoms: N_7  and  C_2 
REMARK    3  A    between atoms: C_3  and  C_19 
REMARK    4  A    between atoms: C_4  and  C_20 
REMARK    5  A    between atoms: C_19  and  N_7 
REMARK    6  A    between atoms: C_20  and  N_8 
REMARK    7  A    between atoms: C_23  and  C_11 
REMARK    8  A    between atoms: C_12  and  C_22 
REMARK    9  A    between atoms: S_21  and  C_23 
REMARK   10  A    between atoms: C_22  and  S_21 
ROOT
ATOM      1  S   UNL d   1      49.475  34.693  52.996  0.00  0.00    -0.086 SA
ENDROOT
BRANCH   1   2
ATOM      2  C   UNL d   1      49.014  35.346  52.738  0.00  0.00     0.040 C 
BRANCH   2   3
ATOM      3  C   UNL d   1      48.380  35.617  53.211  0.00  0.00     0.070 C 
BRANCH   3   4
ATOM      4  C   UNL d   1      47.761  36.062  52.845  0.00  0.00     0.280 C 
ATOM      5  N   UNL d   1      47.068  36.280  53.311  0.00  0.00    -0.204 NA
ATOM      6  O   UNL d   1      47.816  36.291  52.039  0.00  0.00    -0.265 OA
BRANCH   5   7
ATOM      7  C   UNL d   1      47.006  36.061  54.096  0.00  0.00     0.127 C 
BRANCH   7   8
ATOM      8  C   UNL d   1      46.305  36.176  54.515  0.00  0.00     0.119 A 
ATOM      9  O   UNL d   1      46.316  36.704  55.186  0.00  0.00    -0.304 OA
ATOM     10  C   UNL d   1      45.537  36.700  55.485  0.00  0.00     0.123 A 
ATOM     11  C   UNL d   1      45.060  36.214  55.049  0.00  0.00     0.029 A 
ATOM     12  C   UNL d   1      45.548  35.886  54.441  0.00  0.00     0.028 A 
ENDBRANCH   7   8
ENDBRANCH   5   7
ENDBRANCH   3   4
ENDBRANCH   2   3
ENDBRANCH   1   2
BRANCH   1  13
ATOM     13  C   UNL d   1      50.292  34.682  52.788  0.00  0.00     0.040 C 
BRANCH  13  14
ATOM     14  C   UNL d   1      50.768  34.003  52.987  0.00  0.00     0.070 C 
BRANCH  14  15
ATOM     15  C   UNL d   1      51.585  34.058  52.916  0.00  0.00     0.280 C 
ATOM     16  N   UNL d   1      52.082  33.700  53.528  0.00  0.00    -0.204 NA
ATOM     17  O   UNL d   1      51.954  34.447  52.274  0.00  0.00    -0.265 OA
BRANCH  16  18
ATOM     18  C   UNL d   1      52.882  33.761  53.446  0.00  0.00     0.127 C 
BRANCH  18  19
ATOM     19  C   UNL d   1      53.406  33.474  54.038  0.00  0.00     0.119 A 
ATOM     20  O   UNL d   1      53.732  33.913  54.656  0.00  0.00    -0.304 OA
ATOM     21  C   UNL d   1      54.228  33.374  55.110  0.00  0.00     0.123 A 
ATOM     22  C   UNL d   1      54.170  32.665  54.745  0.00  0.00     0.029 A 
ATOM     23  C   UNL d   1      53.689  32.713  54.114  0.00  0.00     0.028 A 
ENDBRANCH  18  19
ENDBRANCH  16  18
ENDBRANCH  14  15
ENDBRANCH  13  14
ENDBRANCH   1  13
TORSDOF 10
ENDMDL
MODEL 6
REMARK VINA RESULT:      -4.9      9.967     10.506
REMARK  10 active torsions:
REMARK  status: ('A' for Active; 'I' for Inactive)
REMARK       I    between atoms: N_8  and  C_1 
REMARK    1  A    between atoms: C_11  and  C_1 
REMARK    2  A    between atoms: C_2  and  C_12 
REMARK       I    between atoms: N_7  and  C_2 
REMARK    3  A    between atoms: C_3  and  C_19 
REMARK    4  A    between atoms: C_4  and  C_20 
REMARK    5  A    between atoms: C_19  and  N_7 
REMARK    6  A    between atoms: C_20  and  N_8 
REMARK    7  A    between atoms: C_23  and  C_11 
REMARK    8  A    between atoms: C_12  and  C_22 
REMARK    9  A    between atoms: S_21  and  C_23 
REMARK   10  A    between atoms: C_22  and  S_21 
ROOT
ATOM      1  S   UNL d   1      45.351  27.911  57.769  0.00  0.00    -0.086 SA
ENDROOT
BRANCH   1   2
ATOM      2  C   UNL d   1      45.057  28.698  57.769  0.00  0.00     0.040 C 
BRANCH   2   3
ATOM      3  C   UNL d   1      45.150  29.174  58.450  0.00  0.00     0.070 C 
BRANCH   3   4
ATOM      4  C   UNL d   1      44.983  30.002  58.392  0.00  0.00     0.280 C 
ATOM      5  N   UNL d   1      44.868  30.458  59.116  0.00  0.00    -0.204 NA
ATOM      6  O   UNL d   1      44.930  30.378  57.644  0.00  0.00    -0.265 OA
BRANCH   5   7
ATOM      7  C   UNL d   1      44.918  30.100  59.849  0.00  0.00     0.127 C 
BRANCH   7   8
ATOM      8  C   UNL d   1      44.740  30.515  60.538  0.00  0.00     0.119 A 
ATOM      9  O   UNL d   1      45.024  30.207  61.282  0.00  0.00    -0.304 OA
ATOM     10  C   UNL d   1      44.755  30.744  61.862  0.00  0.00     0.123 A 
ATOM     11  C   UNL d   1      44.334  31.347  61.528  0.00  0.00     0.029 A 
ATOM     12  C   UNL d   1      44.327  31.199  60.696  0.00  0.00     0.028 A 
ENDBRANCH   7   8
ENDBRANCH   5   7
ENDBRANCH   3   4
ENDBRANCH   2   3
ENDBRANCH   1   2
BRANCH   1  13
ATOM     13  C   UNL d   1      44.876  27.313  57.413  0.00  0.00     0.040 C 
BRANCH  13  14
ATOM     14  C   UNL d   1      45.234  26.749  56.884  0.00  0.00     0.070 C 
BRANCH  14  15
ATOM     15  C   UNL d   1      44.867  26.023  56.771  0.00  0.00     0.280 C 
ATOM     16  N   UNL d   1      44.993  25.603  56.024  0.00  0.00    -0.204 NA
ATOM     17  O   UNL d   1      44.377  25.674  57.352  0.00  0.00    -0.265 OA
BRANCH  16  18
ATOM     18  C   UNL d   1      44.627  24.890  55.927  0.00  0.00     0.127 C 
BRANCH  18  19
ATOM     19  C   UNL d   1      44.651  24.484  55.192  0.00  0.00     0.119 A 
ATOM     20  O   UNL d   1      44.347  24.755  54.473  0.00  0.00    -0.304 OA
ATOM     21  C   UNL d   1      44.506  24.143  53.888  0.00  0.00     0.123 A 
ATOM     22  C   UNL d   1      44.885  23.559  54.281  0.00  0.00     0.029 A 
ATOM     23  C   UNL d   1      44.975  23.749  55.048  0.00  0.00     0.028 A 
ENDBRANCH  18  19
ENDBRANCH  16  18
ENDBRANCH  14  15
ENDBRANCH  13  14
ENDBRANCH   1  13
TORSDOF 10
ENDMDL
MODEL 7
REMARK VINA RESULT:      -4.8      9.959     10.654
REMARK  10 active torsions:
REMARK  status: ('A' for Active; 'I' for Inactive)
REMARK       I    between atoms: N_8  and  C_1 
REMARK    1  A    between atoms: C_11  and  C_1 
REMARK    2  A    between atoms: C_2  and  C_12 
REMARK       I    between atoms: N_7  and  C_2 
REMARK    3  A    between atoms: C_3  and  C_19 
REMARK    4  A    between atoms: C_4  and  C_20 
REMARK    5  A    between atoms: C_19  and  N_7 
REMARK    6  A    between atoms: C_20  and  N_8 
REMARK    7  A    between atoms: C_23  and  C_11 
REMARK    8  A    between atoms: C_12  and  C_22 
REMARK    9  A    between atoms: S_21  and  C_23 
REMARK   10  A    between atoms: C_22  and  S_21 
ROOT
ATOM      1  S   UNL d   1      44.693  26.128  56.412  0.00  0.00    -0.086 SA
ENDROOT
BRANCH   1   2
ATOM      2  C   UNL d   1      45.117  26.381  57.091  0.00  0.00     0.040 C 
BRANCH   2   3
ATOM      3  C   UNL d   1      45.038  27.171  57.357  0.00  0.00     0.070 C 
BRANCH   3   4
ATOM      4  C   UNL d   1      45.409  27.394  58.083  0.00  0.00     0.280 C 
ATOM      5  N   UNL d   1      45.393  28.222  58.326  0.00  0.00    -0.204 NA
ATOM      6  O   UNL d   1      45.789  26.821  58.565  0.00  0.00    -0.265 OA
BRANCH   5   7
ATOM      7  C   UNL d   1      45.025  28.786  57.864  0.00  0.00     0.127 C 
BRANCH   7   8
ATOM      8  C   UNL d   1      45.018  29.580  58.087  0.00  0.00     0.119 A 
ATOM      9  O   UNL d   1      44.801  30.163  57.503  0.00  0.00    -0.304 OA
ATOM     10  C   UNL d   1      44.846  30.899  57.895  0.00  0.00     0.123 A 
ATOM     11  C   UNL d   1      45.072  30.805  58.665  0.00  0.00     0.029 A 
ATOM     12  C   UNL d   1      45.179  29.974  58.781  0.00  0.00     0.028 A 
ENDBRANCH   7   8
ENDBRANCH   5   7
ENDBRANCH   3   4
ENDBRANCH   2   3
ENDBRANCH   1   2
BRANCH   1  13
ATOM     13  C   UNL d   1      44.863  25.360  56.106  0.00  0.00     0.040 C 
BRANCH  13  14
ATOM     14  C   UNL d   1      44.489  25.102  55.385  0.00  0.00     0.070 C 
BRANCH  14  15
ATOM     15  C   UNL d   1      44.701  24.375  55.067  0.00  0.00     0.280 C 
ATOM     16  N   UNL d   1      44.669  24.270  54.208  0.00  0.00    -0.204 NA
ATOM     17  O   UNL d   1      44.948  23.733  55.543  0.00  0.00    -0.265 OA
BRANCH  16  18
ATOM     18  C   UNL d   1      44.880  23.551  53.909  0.00  0.00     0.127 C 
BRANCH  18  19
ATOM     19  C   UNL d   1      44.925  23.418  53.080  0.00  0.00     0.119 A 
ATOM     20  O   UNL d   1      44.337  23.587  52.526  0.00  0.00    -0.304 OA
ATOM     21  C   UNL d   1      44.645  23.352  51.756  0.00  0.00     0.123 A 
ATOM     22  C   UNL d   1      45.378  23.066  51.893  0.00  0.00     0.029 A 
ATOM     23  C   UNL d   1      45.553  23.100  52.668  0.00  0.00     0.028 A 
ENDBRANCH  18  19
ENDBRANCH  16  18
ENDBRANCH  14  15
ENDBRANCH  13  14
ENDBRANCH   1  13
TORSDOF 10
ENDMDL
MODEL 8
REMARK VINA RESULT:      -4.7      9.968     11.211
REMARK  10 active torsions:
REMARK  status: ('A' for Active; 'I' for Inactive)
REMARK       I    between atoms: N_8  and  C_1 
REMARK    1  A    between atoms: C_11  and  C_1 
REMARK    2  A    between atoms: C_2  and  C_12 
REMARK       I    between atoms: N_7  and  C_2 
REMARK    3  A    between atoms: C_3  and  C_19 
REMARK    4  A    between atoms: C_4  and  C_20 
REMARK    5  A    between atoms: C_19  and  N_7 
REMARK    6  A    between atoms: C_20  and  N_8 
REMARK    7  A    between atoms: C_23  and  C_11 
REMARK    8  A    between atoms: C_12  and  C_22 
REMARK    9  A    between atoms: S_21  and  C_23 
REMARK   10  A    between atoms: C_22  and  S_21 
ROOT
ATOM      1  S   UNL d   1      44.593  25.862  56.089  0.00  0.00    -0.086 SA
ENDROOT
BRANCH   1   2
ATOM      2  C   UNL d   1      44.827  25.066  55.958  0.00  0.00     0.040 C 
BRANCH   2   3
ATOM      3  C   UNL d   1      44.695  24.714  55.211  0.00  0.00     0.070 C 
BRANCH   3   4
ATOM      4  C   UNL d   1      44.959  23.920  55.084  0.00  0.00     0.280 C 
ATOM      5  N   UNL d   1      44.949  23.597  54.284  0.00  0.00    -0.204 NA
ATOM      6  O   UNL d   1      45.229  23.450  55.725  0.00  0.00    -0.265 OA
BRANCH   5   7
ATOM      7  C   UNL d   1      44.688  24.048  53.654  0.00  0.00     0.127 C 
BRANCH   7   8
ATOM      8  C   UNL d   1      44.758  23.777  52.879  0.00  0.00     0.119 A 
ATOM      9  O   UNL d   1      44.368  24.215  52.259  0.00  0.00    -0.304 OA
ATOM     10  C   UNL d   1      44.542  23.805  51.553  0.00  0.00     0.123 A 
ATOM     11  C   UNL d   1      45.004  23.158  51.698  0.00  0.00     0.029 A 
ATOM     12  C   UNL d   1      45.137  23.144  52.533  0.00  0.00     0.028 A 
ENDBRANCH   7   8
ENDBRANCH   5   7
ENDBRANCH   3   4
ENDBRANCH   2   3
ENDBRANCH   1   2
BRANCH   1  13
ATOM     13  C   UNL d   1      44.968  26.285  56.715  0.00  0.00     0.040 C 
BRANCH  13  14
ATOM     14  C   UNL d   1      44.843  27.125  56.790  0.00  0.00     0.070 C 
BRANCH  14  15
ATOM     15  C   UNL d   1      45.189  27.522  57.420  0.00  0.00     0.280 C 
ATOM     16  N   UNL d   1      44.972  28.348  57.563  0.00  0.00    -0.204 NA
ATOM     17  O   UNL d   1      45.743  27.157  57.929  0.00  0.00    -0.265 OA
BRANCH  16  18
ATOM     18  C   UNL d   1      45.319  28.726  58.185  0.00  0.00     0.127 C 
BRANCH  18  19
ATOM     19  C   UNL d   1      45.167  29.537  58.344  0.00  0.00     0.119 A 
ATOM     20  O   UNL d   1      45.002  30.122  57.785  0.00  0.00    -0.304 OA
ATOM     21  C   UNL d   1      44.888  30.857  58.220  0.00  0.00     0.123 A 
ATOM     22  C   UNL d   1      44.988  30.673  58.991  0.00  0.00     0.029 A 
ATOM     23  C   UNL d   1      45.153  29.900  59.075  0.00  0.00     0.028 A 
ENDBRANCH  18  19
ENDBRANCH  16  18
ENDBRANCH  14  15
ENDBRANCH  13  14
ENDBRANCH   1  13
TORSDOF 10
ENDMDL
MODEL 9
REMARK VINA RESULT:      -4.2     10.674     11.959
REMARK  10 active torsions:
REMARK  status: ('A' for Active; 'I' for Inactive)
REMARK       I    between atoms: N_8  and  C_1 
REMARK    1  A    between atoms: C_11  and  C_1 
REMARK    2  A    between atoms: C_2  and  C_12 
REMARK       I    between atoms: N_7  and  C_2 
REMARK    3  A    between atoms: C_3  and  C_19 
REMARK    4  A    between atoms: C_4  and  C_20 
REMARK    5  A    between atoms: C_19  and  N_7 
REMARK    6  A    between atoms: C_20  and  N_8 
REMARK    7  A    between atoms: C_23  and  C_11 
REMARK    8  A    between atoms: C_12  and  C_22 
REMARK    9  A    between atoms: S_21  and  C_23 
REMARK   10  A    between atoms: C_22  and  S_21 
ROOT
ATOM      1  S   UNL d   1      45.329  27.447  57.507  0.00  0.00    -0.086 SA
ENDROOT
BRANCH   1   2
ATOM      2  C   UNL d   1      44.908  26.874  57.061  0.00  0.00     0.040 C 
BRANCH   2   3
ATOM      3  C   UNL d   1      44.883  26.081  57.326  0.00  0.00     0.070 C 
BRANCH   3   4
ATOM      4  C   UNL d   1      44.615  25.482  56.791  0.00  0.00     0.280 C 
ATOM      5  N   UNL d   1      44.480  24.683  57.088  0.00  0.00    -0.204 NA
ATOM      6  O   UNL d   1      44.482  25.659  55.981  0.00  0.00    -0.265 OA
BRANCH   5   7
ATOM      7  C   UNL d   1      44.607  24.503  57.875  0.00  0.00     0.127 C 
BRANCH   7   8
ATOM      8  C   UNL d   1      44.537  23.729  58.150  0.00  0.00     0.119 A 
ATOM      9  O   UNL d   1      44.344  23.607  58.972  0.00  0.00    -0.304 OA
ATOM     10  C   UNL d   1      44.315  22.778  59.073  0.00  0.00     0.123 A 
ATOM     11  C   UNL d   1      44.474  22.394  58.380  0.00  0.00     0.029 A 
ATOM     12  C   UNL d   1      44.613  22.996  57.802  0.00  0.00     0.028 A 
ENDBRANCH   7   8
ENDBRANCH   5   7
ENDBRANCH   3   4
ENDBRANCH   2   3
ENDBRANCH   1   2
BRANCH   1  13
ATOM     13  C   UNL d   1      44.942  28.178  57.675  0.00  0.00     0.040 C 
BRANCH  13  14
ATOM     14  C   UNL d   1      45.356  28.783  58.109  0.00  0.00     0.070 C 
BRANCH  14  15
ATOM     15  C   UNL d   1      44.929  29.418  58.408  0.00  0.00     0.280 C 
ATOM     16  N   UNL d   1      44.985  29.598  59.254  0.00  0.00    -0.204 NA
ATOM     17  O   UNL d   1      44.441  29.897  57.926  0.00  0.00    -0.265 OA
BRANCH  16  18
ATOM     18  C   UNL d   1      44.560  30.224  59.534  0.00  0.00     0.127 C 
BRANCH  18  19
ATOM     19  C   UNL d   1      44.564  30.424  60.351  0.00  0.00     0.119 A 
ATOM     20  O   UNL d   1      44.609  29.895  60.983  0.00  0.00    -0.304 OA
ATOM     21  C   UNL d   1      44.595  30.367  61.704  0.00  0.00     0.123 A 
ATOM     22  C   UNL d   1      44.544  31.128  61.465  0.00  0.00     0.029 A 
ATOM     23  C   UNL d   1      44.525  31.172  60.672  0.00  0.00     0.028 A 
ENDBRANCH  18  19
ENDBRANCH  16  18
ENDBRANCH  14  15
ENDBRANCH  13  14
ENDBRANCH   1  13
TORSDOF 10
ENDMDL
