MODEL 1
REMARK VINA RESULT:      -7.1      0.000      0.000
REMARK  3 active torsions:
REMARK  status: ('A' for Active; 'I' for Inactive)
REMARK    1  A    between atoms: C_6  and  C_3 
REMARK    2  A    between atoms: C_9  and  C_6 
REMARK    3  A    between atoms: O_15  and  C_10 
ROOT
ATOM      1  C   UNL d   1     -48.246  14.204  22.383  0.00  0.00     0.001 A 
ATOM      2  C   UNL d   1     -49.792  14.796  22.441  0.00  0.00     0.094 A 
ATOM      3  C   UNL d   1     -48.818  13.889  21.880  0.00  0.00     0.002 A 
ATOM      4  C   UNL d   1     -48.436  14.808  22.912  0.00  0.00     0.002 A 
ATOM      5  C   UNL d   1     -49.601  14.193  21.913  0.00  0.00     0.024 A 
ATOM      6  C   UNL d   1     -49.183  15.101  22.947  0.00  0.00     0.024 A 
ENDROOT
BRANCH   1   7
ATOM      7  C   UNL d   1     -47.490  13.876  22.316  0.00  0.00     0.011 C 
BRANCH   7   8
ATOM      8  C   UNL d   1     -47.192  13.283  22.825  0.00  0.00     0.092 A 
ATOM      9  C   UNL d   1     -46.538  13.301  23.282  0.00  0.00     0.288 A 
ATOM     10  N   UNL d   1     -46.474  12.607  23.674  0.00  0.00    -0.163 NA
ATOM     11  O   UNL d   1     -45.998  13.972  23.332  0.00  0.00    -0.265 OA
ATOM     12  C   UNL d   1     -47.136  12.149  23.430  0.00  0.00     0.313 A 
ATOM     13  S   UNL d   1     -47.552  12.599  22.909  0.00  0.00    -0.021 SA
ATOM     14  O   UNL d   1     -47.307  11.366  23.698  0.00  0.00    -0.258 OA
ENDBRANCH   7   8
ENDBRANCH   1   7
BRANCH   2  15
ATOM     15  O   UNL d   1     -50.566  15.086  22.464  0.00  0.00    -0.328 OA
ATOM     16  C   UNL d   1     -50.996  15.033  23.147  0.00  0.00     0.181 C 
ENDBRANCH   2  15
TORSDOF 3
ENDMDL
MODEL 2
REMARK VINA RESULT:      -7.1      1.503      1.578
REMARK  3 active torsions:
REMARK  status: ('A' for Active; 'I' for Inactive)
REMARK    1  A    between atoms: C_6  and  C_3 
REMARK    2  A    between atoms: C_9  and  C_6 
REMARK    3  A    between atoms: O_15  and  C_10 
ROOT
ATOM      1  C   UNL d   1     -48.561  13.190  22.444  0.00  0.00     0.001 A 
ATOM      2  C   UNL d   1     -50.099  12.679  22.788  0.00  0.00     0.094 A 
ATOM      3  C   UNL d   1     -48.924  12.640  21.949  0.00  0.00     0.002 A 
ATOM      4  C   UNL d   1     -48.956  13.486  23.105  0.00  0.00     0.002 A 
ATOM      5  C   UNL d   1     -49.704  12.383  22.127  0.00  0.00     0.024 A 
ATOM      6  C   UNL d   1     -49.702  13.244  23.280  0.00  0.00     0.024 A 
ENDROOT
BRANCH   1   7
ATOM      7  C   UNL d   1     -47.795  13.413  22.230  0.00  0.00     0.011 C 
BRANCH   7   8
ATOM      8  C   UNL d   1     -47.114  13.243  22.687  0.00  0.00     0.092 A 
ATOM      9  C   UNL d   1     -46.557  13.747  22.956  0.00  0.00     0.288 A 
ATOM     10  N   UNL d   1     -46.010  13.333  23.367  0.00  0.00    -0.163 NA
ATOM     11  O   UNL d   1     -46.561  14.598  22.816  0.00  0.00    -0.265 OA
ATOM     12  C   UNL d   1     -46.263  12.532  23.337  0.00  0.00     0.313 A 
ATOM     13  S   UNL d   1     -46.944  12.518  22.910  0.00  0.00    -0.021 SA
ATOM     14  O   UNL d   1     -45.858  11.883  23.697  0.00  0.00    -0.258 OA
ENDBRANCH   7   8
ENDBRANCH   1   7
BRANCH   2  15
ATOM     15  O   UNL d   1     -50.866  12.419  22.953  0.00  0.00    -0.328 OA
ATOM     16  C   UNL d   1     -51.005  11.960  23.604  0.00  0.00     0.181 C 
ENDBRANCH   2  15
TORSDOF 3
ENDMDL
MODEL 3
REMARK VINA RESULT:      -6.9      1.973      3.540
REMARK  3 active torsions:
REMARK  status: ('A' for Active; 'I' for Inactive)
REMARK    1  A    between atoms: C_6  and  C_3 
REMARK    2  A    between atoms: C_9  and  C_6 
REMARK    3  A    between atoms: O_15  and  C_10 
ROOT
ATOM      1  C   UNL d   1     -47.614  12.928  23.256  0.00  0.00     0.001 A 
ATOM      2  C   UNL d   1     -46.096  13.364  22.754  0.00  0.00     0.094 A 
ATOM      3  C   UNL d   1     -47.000  12.380  23.303  0.00  0.00     0.002 A 
ATOM      4  C   UNL d   1     -47.478  13.687  22.963  0.00  0.00     0.002 A 
ATOM      5  C   UNL d   1     -46.231  12.605  23.047  0.00  0.00     0.024 A 
ATOM      6  C   UNL d   1     -46.746  13.907  22.717  0.00  0.00     0.024 A 
ENDROOT
BRANCH   1   7
ATOM      7  C   UNL d   1     -48.351  12.663  23.518  0.00  0.00     0.011 C 
BRANCH   7   8
ATOM      8  C   UNL d   1     -48.948  12.368  23.012  0.00  0.00     0.092 A 
ATOM      9  C   UNL d   1     -49.357  11.685  23.070  0.00  0.00     0.288 A 
ATOM     10  N   UNL d   1     -49.872  11.638  22.460  0.00  0.00    -0.163 NA
ATOM     11  O   UNL d   1     -49.248  11.103  23.698  0.00  0.00    -0.265 OA
ATOM     12  C   UNL d   1     -49.758  12.341  22.013  0.00  0.00     0.313 A 
ATOM     13  S   UNL d   1     -49.183  12.762  22.385  0.00  0.00    -0.021 SA
ATOM     14  O   UNL d   1     -50.181  12.541  21.310  0.00  0.00    -0.258 OA
ENDBRANCH   7   8
ENDBRANCH   1   7
BRANCH   2  15
ATOM     15  O   UNL d   1     -45.336  13.574  22.505  0.00  0.00    -0.328 OA
ATOM     16  C   UNL d   1     -44.954  13.124  21.954  0.00  0.00     0.181 C 
ENDBRANCH   2  15
TORSDOF 3
ENDMDL
MODEL 4
REMARK VINA RESULT:      -6.9      1.529      3.591
REMARK  3 active torsions:
REMARK  status: ('A' for Active; 'I' for Inactive)
REMARK    1  A    between atoms: C_6  and  C_3 
REMARK    2  A    between atoms: C_9  and  C_6 
REMARK    3  A    between atoms: O_15  and  C_10 
ROOT
ATOM      1  C   UNL d   1     -47.245  13.733  22.936  0.00  0.00     0.001 A 
ATOM      2  C   UNL d   1     -46.201  12.492  23.275  0.00  0.00     0.094 A 
ATOM      3  C   UNL d   1     -46.526  13.690  22.536  0.00  0.00     0.002 A 
ATOM      4  C   UNL d   1     -47.448  13.165  23.499  0.00  0.00     0.002 A 
ATOM      5  C   UNL d   1     -45.999  13.059  22.711  0.00  0.00     0.024 A 
ATOM      6  C   UNL d   1     -46.948  12.560  23.670  0.00  0.00     0.024 A 
ENDROOT
BRANCH   1   7
ATOM      7  C   UNL d   1     -47.731  14.369  22.731  0.00  0.00     0.011 C 
BRANCH   7   8
ATOM      8  C   UNL d   1     -48.511  14.287  22.438  0.00  0.00     0.092 A 
ATOM      9  C   UNL d   1     -49.171  14.673  22.666  0.00  0.00     0.288 A 
ATOM     10  N   UNL d   1     -49.788  14.412  22.229  0.00  0.00    -0.163 NA
ATOM     11  O   UNL d   1     -49.196  15.272  23.286  0.00  0.00    -0.265 OA
ATOM     12  C   UNL d   1     -49.468  13.833  21.709  0.00  0.00     0.313 A 
ATOM     13  S   UNL d   1     -48.681  13.786  21.869  0.00  0.00    -0.021 SA
ATOM     14  O   UNL d   1     -49.912  13.399  21.137  0.00  0.00    -0.258 OA
ENDBRANCH   7   8
ENDBRANCH   1   7
BRANCH   2  15
ATOM     15  O   UNL d   1     -45.675  11.876  23.439  0.00  0.00    -0.328 OA
ATOM     16  C   UNL d   1     -45.958  11.140  23.618  0.00  0.00     0.181 C 
ENDBRANCH   2  15
TORSDOF 3
ENDMDL
MODEL 5
REMARK VINA RESULT:      -5.3      8.684      9.567
REMARK  3 active torsions:
REMARK  status: ('A' for Active; 'I' for Inactive)
REMARK    1  A    between atoms: C_6  and  C_3 
REMARK    2  A    between atoms: C_9  and  C_6 
REMARK    3  A    between atoms: O_15  and  C_10 
ROOT
ATOM      1  C   UNL d   1     -40.562  14.934  19.172  0.00  0.00     0.001 A 
ATOM      2  C   UNL d   1     -40.408  15.417  20.749  0.00  0.00     0.094 A 
ATOM      3  C   UNL d   1     -40.217  14.422  19.719  0.00  0.00     0.002 A 
ATOM      4  C   UNL d   1     -40.828  15.679  19.403  0.00  0.00     0.002 A 
ATOM      5  C   UNL d   1     -40.141  14.671  20.518  0.00  0.00     0.024 A 
ATOM      6  C   UNL d   1     -40.758  15.922  20.166  0.00  0.00     0.024 A 
ENDROOT
BRANCH   1   7
ATOM      7  C   UNL d   1     -40.616  14.648  18.399  0.00  0.00     0.011 C 
BRANCH   7   8
ATOM      8  C   UNL d   1     -40.202  14.975  17.749  0.00  0.00     0.092 A 
ATOM      9  C   UNL d   1     -40.490  15.214  17.044  0.00  0.00     0.288 A 
ATOM     10  N   UNL d   1     -39.887  15.489  16.597  0.00  0.00    -0.163 NA
ATOM     11  O   UNL d   1     -41.321  15.174  16.819  0.00  0.00    -0.265 OA
ATOM     12  C   UNL d   1     -39.197  15.406  17.071  0.00  0.00     0.313 A 
ATOM     13  S   UNL d   1     -39.432  15.087  17.771  0.00  0.00    -0.021 SA
ATOM     14  O   UNL d   1     -38.417  15.625  16.833  0.00  0.00    -0.258 OA
ENDBRANCH   7   8
ENDBRANCH   1   7
BRANCH   2  15
ATOM     15  O   UNL d   1     -40.328  15.650  21.538  0.00  0.00    -0.328 OA
ATOM     16  C   UNL d   1     -39.616  15.922  21.808  0.00  0.00     0.181 C 
ENDBRANCH   2  15
TORSDOF 3
ENDMDL
MODEL 6
REMARK VINA RESULT:      -4.9      8.094      9.380
REMARK  3 active torsions:
REMARK  status: ('A' for Active; 'I' for Inactive)
REMARK    1  A    between atoms: C_6  and  C_3 
REMARK    2  A    between atoms: C_9  and  C_6 
REMARK    3  A    between atoms: O_15  and  C_10 
ROOT
ATOM      1  C   UNL d   1     -40.467  14.733  18.983  0.00  0.00     0.001 A 
ATOM      2  C   UNL d   1     -39.992  14.770  17.396  0.00  0.00     0.094 A 
ATOM      3  C   UNL d   1     -40.070  14.084  18.665  0.00  0.00     0.002 A 
ATOM      4  C   UNL d   1     -40.628  15.396  18.520  0.00  0.00     0.002 A 
ATOM      5  C   UNL d   1     -39.831  14.107  17.859  0.00  0.00     0.024 A 
ATOM      6  C   UNL d   1     -40.401  15.422  17.749  0.00  0.00     0.024 A 
ENDROOT
BRANCH   1   7
ATOM      7  C   UNL d   1     -40.682  14.666  19.778  0.00  0.00     0.011 C 
BRANCH   7   8
ATOM      8  C   UNL d   1     -40.358  15.134  20.391  0.00  0.00     0.092 A 
ATOM      9  C   UNL d   1     -40.740  15.565  20.944  0.00  0.00     0.288 A 
ATOM     10  N   UNL d   1     -40.201  15.921  21.414  0.00  0.00    -0.163 NA
ATOM     11  O   UNL d   1     -41.599  15.625  21.007  0.00  0.00    -0.265 OA
ATOM     12  C   UNL d   1     -39.451  15.683  21.119  0.00  0.00     0.313 A 
ATOM     13  S   UNL d   1     -39.590  15.201  20.490  0.00  0.00    -0.021 SA
ATOM     14  O   UNL d   1     -38.707  15.921  21.440  0.00  0.00    -0.258 OA
ENDBRANCH   7   8
ENDBRANCH   1   7
BRANCH   2  15
ATOM     15  O   UNL d   1     -39.752  14.780  16.605  0.00  0.00    -0.328 OA
ATOM     16  C   UNL d   1     -38.978  14.927  16.421  0.00  0.00     0.181 C 
ENDBRANCH   2  15
TORSDOF 3
ENDMDL
