MODEL 1
REMARK VINA RESULT:      -5.4      0.000      0.000
REMARK  5 active torsions:
REMARK  status: ('A' for Active; 'I' for Inactive)
REMARK    1  A    between atoms: N_6  and  S_1 
REMARK    2  A    between atoms: C_11  and  S_1 
REMARK    3  A    between atoms: C_2  and  N_5 
REMARK    4  A    between atoms: C_9  and  C_4 
REMARK       I    between atoms: N_5  and  C_7 
REMARK    5  A    between atoms: C_7  and  C_15 
ROOT
ATOM      1  C   UNL d   1     -47.391  13.782  22.656  0.00  0.00     0.104 A 
ATOM      2  C   UNL d   1     -45.834  13.315  22.365  0.00  0.00     0.058 A 
ATOM      3  C   UNL d   1     -47.227  13.233  22.060  0.00  0.00     0.013 A 
ATOM      4  C   UNL d   1     -46.756  14.105  23.118  0.00  0.00     0.013 A 
ATOM      5  C   UNL d   1     -46.474  12.992  21.902  0.00  0.00     0.005 A 
ATOM      6  C   UNL d   1     -45.993  13.862  22.959  0.00  0.00     0.005 A 
ENDROOT
BRANCH   2   7
ATOM      7  C   UNL d   1     -45.032  13.076  22.218  0.00  0.00     0.281 C 
ATOM      8  N   UNL d   1     -44.564  13.509  21.692  0.00  0.00    -0.183 NA
ATOM      9  O   UNL d   1     -44.705  12.412  22.592  0.00  0.00    -0.265 OA
BRANCH   8  10
ATOM     10  C   UNL d   1     -43.783  13.269  21.554  0.00  0.00     0.197 A 
ATOM     11  N   UNL d   1     -43.176  13.844  21.403  0.00  0.00    -0.220 NA
ATOM     12  C   UNL d   1     -42.476  13.445  21.290  0.00  0.00     0.096 A 
ATOM     13  C   UNL d   1     -42.623  12.645  21.364  0.00  0.00     0.058 A 
ATOM     14  S   UNL d   1     -43.427  12.529  21.528  0.00  0.00    -0.046 SA
BRANCH  12  15
ATOM     15  C   UNL d   1     -41.745  13.739  21.131  0.00  0.00     0.048 A 
ATOM     16  S   UNL d   1     -41.015  13.665  21.511  0.00  0.00    -0.085 SA
ATOM     17  C   UNL d   1     -40.468  14.096  21.084  0.00  0.00     0.035 A 
ATOM     18  C   UNL d   1     -40.825  14.434  20.457  0.00  0.00     0.007 A 
ATOM     19  C   UNL d   1     -41.629  14.217  20.475  0.00  0.00     0.009 A 
ENDBRANCH  12  15
ENDBRANCH   8  10
ENDBRANCH   2   7
BRANCH   1  20
ATOM     20  S   UNL d   1     -48.173  14.036  22.823  0.00  0.00     0.271 S 
ATOM     21  O   UNL d   1     -48.036  14.746  22.357  0.00  0.00    -0.200 OA
ATOM     22  O   UNL d   1     -48.315  13.353  23.275  0.00  0.00    -0.200 OA
BRANCH  20  23
ATOM     23  N   UNL d   1     -48.962  14.309  22.981  0.00  0.00    -0.229 N 
ATOM     24  C   UNL d   1     -49.547  13.773  23.218  0.00  0.00     0.092 A 
ATOM     25  C   UNL d   1     -50.317  14.044  23.373  0.00  0.00     0.020 A 
ATOM     26  C   UNL d   1     -50.484  14.847  23.286  0.00  0.00     0.003 A 
ATOM     27  C   UNL d   1     -49.901  15.374  23.051  0.00  0.00     0.020 A 
ATOM     28  C   UNL d   1     -49.155  15.123  22.900  0.00  0.00     0.092 A 
ENDBRANCH  20  23
ENDBRANCH   1  20
TORSDOF 5
ENDMDL
MODEL 2
REMARK VINA RESULT:      -5.0      0.842      1.232
REMARK  5 active torsions:
REMARK  status: ('A' for Active; 'I' for Inactive)
REMARK    1  A    between atoms: N_6  and  S_1 
REMARK    2  A    between atoms: C_11  and  S_1 
REMARK    3  A    between atoms: C_2  and  N_5 
REMARK    4  A    between atoms: C_9  and  C_4 
REMARK       I    between atoms: N_5  and  C_7 
REMARK    5  A    between atoms: C_7  and  C_15 
ROOT
ATOM      1  C   UNL d   1     -47.195  12.886  22.813  0.00  0.00     0.104 A 
ATOM      2  C   UNL d   1     -45.595  12.768  22.424  0.00  0.00     0.058 A 
ATOM      3  C   UNL d   1     -46.894  13.299  22.163  0.00  0.00     0.013 A 
ATOM      4  C   UNL d   1     -46.678  12.401  23.280  0.00  0.00     0.013 A 
ATOM      5  C   UNL d   1     -46.116  13.254  21.956  0.00  0.00     0.005 A 
ATOM      6  C   UNL d   1     -45.890  12.355  23.071  0.00  0.00     0.005 A 
ENDROOT
BRANCH   2   7
ATOM      7  C   UNL d   1     -44.770  12.705  22.226  0.00  0.00     0.281 C 
ATOM      8  N   UNL d   1     -44.431  13.247  21.703  0.00  0.00    -0.183 NA
ATOM      9  O   UNL d   1     -44.295  12.107  22.548  0.00  0.00    -0.265 OA
BRANCH   8  10
ATOM     10  C   UNL d   1     -43.626  13.179  21.515  0.00  0.00     0.197 A 
ATOM     11  N   UNL d   1     -43.144  13.873  21.428  0.00  0.00    -0.220 NA
ATOM     12  C   UNL d   1     -42.390  13.632  21.246  0.00  0.00     0.096 A 
ATOM     13  C   UNL d   1     -42.382  12.816  21.216  0.00  0.00     0.058 A 
ATOM     14  S   UNL d   1     -43.142  12.529  21.381  0.00  0.00    -0.046 SA
BRANCH  12  15
ATOM     15  C   UNL d   1     -41.734  14.077  21.110  0.00  0.00     0.048 A 
ATOM     16  S   UNL d   1     -40.925  13.906  21.128  0.00  0.00    -0.085 SA
ATOM     17  C   UNL d   1     -40.523  14.592  20.939  0.00  0.00     0.035 A 
ATOM     18  C   UNL d   1     -41.044  15.179  20.806  0.00  0.00     0.007 A 
ATOM     19  C   UNL d   1     -41.810  14.868  20.911  0.00  0.00     0.009 A 
ENDBRANCH  12  15
ENDBRANCH   8  10
ENDBRANCH   2   7
BRANCH   1  20
ATOM     20  S   UNL d   1     -48.003  12.929  23.031  0.00  0.00     0.271 S 
ATOM     21  O   UNL d   1     -48.123  12.133  22.726  0.00  0.00    -0.200 OA
ATOM     22  O   UNL d   1     -47.899  13.698  23.328  0.00  0.00    -0.200 OA
BRANCH  20  23
ATOM     23  N   UNL d   1     -48.826  12.954  23.245  0.00  0.00    -0.229 N 
ATOM     24  C   UNL d   1     -49.243  13.668  23.206  0.00  0.00     0.092 A 
ATOM     25  C   UNL d   1     -50.046  13.690  23.416  0.00  0.00     0.020 A 
ATOM     26  C   UNL d   1     -50.415  12.993  23.661  0.00  0.00     0.003 A 
ATOM     27  C   UNL d   1     -49.997  12.288  23.698  0.00  0.00     0.020 A 
ATOM     28  C   UNL d   1     -49.222  12.257  23.498  0.00  0.00     0.092 A 
ENDBRANCH  20  23
ENDBRANCH   1  20
TORSDOF 5
ENDMDL
MODEL 3
REMARK VINA RESULT:      -4.1      1.784      2.707
REMARK  5 active torsions:
REMARK  status: ('A' for Active; 'I' for Inactive)
REMARK    1  A    between atoms: N_6  and  S_1 
REMARK    2  A    between atoms: C_11  and  S_1 
REMARK    3  A    between atoms: C_2  and  N_5 
REMARK    4  A    between atoms: C_9  and  C_4 
REMARK       I    between atoms: N_5  and  C_7 
REMARK    5  A    between atoms: C_7  and  C_15 
ROOT
ATOM      1  C   UNL d   1     -45.159  12.622  22.382  0.00  0.00     0.104 A 
ATOM      2  C   UNL d   1     -43.692  12.921  21.685  0.00  0.00     0.058 A 
ATOM      3  C   UNL d   1     -44.525  12.107  22.510  0.00  0.00     0.013 A 
ATOM      4  C   UNL d   1     -45.052  13.306  21.890  0.00  0.00     0.013 A 
ATOM      5  C   UNL d   1     -43.802  12.235  22.179  0.00  0.00     0.005 A 
ATOM      6  C   UNL d   1     -44.319  13.437  21.555  0.00  0.00     0.005 A 
ENDROOT
BRANCH   2   7
ATOM      7  C   UNL d   1     -42.938  13.077  21.325  0.00  0.00     0.281 C 
ATOM      8  N   UNL d   1     -42.516  13.757  21.531  0.00  0.00    -0.183 NA
ATOM      9  O   UNL d   1     -42.612  12.557  20.766  0.00  0.00    -0.265 OA
BRANCH   8  10
ATOM     10  C   UNL d   1     -41.782  13.901  21.176  0.00  0.00     0.197 A 
ATOM     11  N   UNL d   1     -41.700  14.508  20.586  0.00  0.00    -0.220 NA
ATOM     12  C   UNL d   1     -40.924  14.517  20.344  0.00  0.00     0.096 A 
ATOM     13  C   UNL d   1     -40.519  13.942  20.757  0.00  0.00     0.058 A 
ATOM     14  S   UNL d   1     -41.042  13.557  21.273  0.00  0.00    -0.046 SA
BRANCH  12  15
ATOM     15  C   UNL d   1     -40.570  14.990  19.797  0.00  0.00     0.048 A 
ATOM     16  S   UNL d   1     -40.169  15.711  19.854  0.00  0.00    -0.085 SA
ATOM     17  C   UNL d   1     -39.932  15.922  19.101  0.00  0.00     0.035 A 
ATOM     18  C   UNL d   1     -40.167  15.366  18.581  0.00  0.00     0.007 A 
ATOM     19  C   UNL d   1     -40.570  14.774  19.007  0.00  0.00     0.009 A 
ENDBRANCH  12  15
ENDBRANCH   8  10
ENDBRANCH   2   7
BRANCH   1  20
ATOM     20  S   UNL d   1     -45.913  12.493  22.724  0.00  0.00     0.271 S 
ATOM     21  O   UNL d   1     -46.280  12.882  22.050  0.00  0.00    -0.200 OA
ATOM     22  O   UNL d   1     -45.569  12.115  23.380  0.00  0.00    -0.200 OA
BRANCH  20  23
ATOM     23  N   UNL d   1     -46.686  12.371  23.055  0.00  0.00    -0.229 N 
ATOM     24  C   UNL d   1     -47.240  12.986  23.055  0.00  0.00     0.092 A 
ATOM     25  C   UNL d   1     -47.995  12.864  23.379  0.00  0.00     0.020 A 
ATOM     26  C   UNL d   1     -48.178  12.125  23.698  0.00  0.00     0.003 A 
ATOM     27  C   UNL d   1     -47.627  11.519  23.696  0.00  0.00     0.020 A 
ATOM     28  C   UNL d   1     -46.896  11.626  23.385  0.00  0.00     0.092 A 
ENDBRANCH  20  23
ENDBRANCH   1  20
TORSDOF 5
ENDMDL
MODEL 4
REMARK VINA RESULT:      -3.9      2.288      7.176
REMARK  5 active torsions:
REMARK  status: ('A' for Active; 'I' for Inactive)
REMARK    1  A    between atoms: N_6  and  S_1 
REMARK    2  A    between atoms: C_11  and  S_1 
REMARK    3  A    between atoms: C_2  and  N_5 
REMARK    4  A    between atoms: C_9  and  C_4 
REMARK       I    between atoms: N_5  and  C_7 
REMARK    5  A    between atoms: C_7  and  C_15 
ROOT
ATOM      1  C   UNL d   1     -40.883  14.425  20.268  0.00  0.00     0.104 A 
ATOM      2  C   UNL d   1     -42.161  13.644  20.965  0.00  0.00     0.058 A 
ATOM      3  C   UNL d   1     -40.958  14.405  21.091  0.00  0.00     0.013 A 
ATOM      4  C   UNL d   1     -41.466  14.043  19.782  0.00  0.00     0.013 A 
ATOM      5  C   UNL d   1     -41.574  14.029  21.451  0.00  0.00     0.005 A 
ATOM      6  C   UNL d   1     -42.090  13.662  20.146  0.00  0.00     0.005 A 
ENDROOT
BRANCH   2   7
ATOM      7  C   UNL d   1     -42.819  13.242  21.322  0.00  0.00     0.281 C 
ATOM      8  N   UNL d   1     -43.527  13.646  21.452  0.00  0.00    -0.183 NA
ATOM      9  O   UNL d   1     -42.766  12.444  21.544  0.00  0.00    -0.265 OA
BRANCH   8  10
ATOM     10  C   UNL d   1     -44.164  13.246  21.800  0.00  0.00     0.197 A 
ATOM     11  N   UNL d   1     -44.869  13.667  22.018  0.00  0.00    -0.220 NA
ATOM     12  C   UNL d   1     -45.388  13.131  22.343  0.00  0.00     0.096 A 
ATOM     13  C   UNL d   1     -45.036  12.396  22.336  0.00  0.00     0.058 A 
ATOM     14  S   UNL d   1     -44.279  12.458  22.003  0.00  0.00    -0.046 SA
BRANCH  12  15
ATOM     15  C   UNL d   1     -46.128  13.256  22.633  0.00  0.00     0.048 A 
ATOM     16  S   UNL d   1     -46.697  12.749  22.956  0.00  0.00    -0.085 SA
ATOM     17  C   UNL d   1     -47.347  13.202  23.153  0.00  0.00     0.035 A 
ATOM     18  C   UNL d   1     -47.209  13.965  22.968  0.00  0.00     0.007 A 
ATOM     19  C   UNL d   1     -46.444  14.011  22.640  0.00  0.00     0.009 A 
ENDBRANCH  12  15
ENDBRANCH   8  10
ENDBRANCH   2   7
BRANCH   1  20
ATOM     20  S   UNL d   1     -40.245  14.814  19.889  0.00  0.00     0.271 S 
ATOM     21  O   UNL d   1     -39.774  14.097  19.957  0.00  0.00    -0.200 OA
ATOM     22  O   UNL d   1     -40.691  15.512  19.818  0.00  0.00    -0.200 OA
BRANCH  20  23
ATOM     23  N   UNL d   1     -39.586  15.192  19.507  0.00  0.00    -0.229 N 
ATOM     24  C   UNL d   1     -38.968  15.506  19.960  0.00  0.00     0.092 A 
ATOM     25  C   UNL d   1     -38.326  15.875  19.584  0.00  0.00     0.020 A 
ATOM     26  C   UNL d   1     -38.318  15.922  18.760  0.00  0.00     0.003 A 
ATOM     27  C   UNL d   1     -38.932  15.610  18.316  0.00  0.00     0.020 A 
ATOM     28  C   UNL d   1     -39.556  15.252  18.669  0.00  0.00     0.092 A 
ENDBRANCH  20  23
ENDBRANCH   1  20
TORSDOF 5
ENDMDL
MODEL 5
REMARK VINA RESULT:      -3.5      1.777      6.702
REMARK  5 active torsions:
REMARK  status: ('A' for Active; 'I' for Inactive)
REMARK    1  A    between atoms: N_6  and  S_1 
REMARK    2  A    between atoms: C_11  and  S_1 
REMARK    3  A    between atoms: C_2  and  N_5 
REMARK    4  A    between atoms: C_9  and  C_4 
REMARK       I    between atoms: N_5  and  C_7 
REMARK    5  A    between atoms: C_7  and  C_15 
ROOT
ATOM      1  C   UNL d   1     -42.052  13.657  20.948  0.00  0.00     0.104 A 
ATOM      2  C   UNL d   1     -43.488  13.153  21.588  0.00  0.00     0.058 A 
ATOM      3  C   UNL d   1     -42.178  12.855  21.106  0.00  0.00     0.013 A 
ATOM      4  C   UNL d   1     -42.664  14.221  21.117  0.00  0.00     0.013 A 
ATOM      5  C   UNL d   1     -42.871  12.589  21.418  0.00  0.00     0.005 A 
ATOM      6  C   UNL d   1     -43.367  13.952  21.434  0.00  0.00     0.005 A 
ENDROOT
BRANCH   2   7
ATOM      7  C   UNL d   1     -44.228  12.896  21.918  0.00  0.00     0.281 C 
ATOM      8  N   UNL d   1     -44.854  13.431  21.992  0.00  0.00    -0.183 NA
ATOM      9  O   UNL d   1     -44.338  12.113  22.170  0.00  0.00    -0.265 OA
BRANCH   8  10
ATOM     10  C   UNL d   1     -45.572  13.171  22.314  0.00  0.00     0.197 A 
ATOM     11  N   UNL d   1     -46.310  13.388  21.952  0.00  0.00    -0.220 NA
ATOM     12  C   UNL d   1     -46.909  13.055  22.389  0.00  0.00     0.096 A 
ATOM     13  C   UNL d   1     -46.576  12.640  23.007  0.00  0.00     0.058 A 
ATOM     14  S   UNL d   1     -45.750  12.707  22.968  0.00  0.00    -0.046 SA
BRANCH  12  15
ATOM     15  C   UNL d   1     -47.704  13.098  22.273  0.00  0.00     0.048 A 
ATOM     16  S   UNL d   1     -48.337  13.258  22.780  0.00  0.00    -0.085 SA
ATOM     17  C   UNL d   1     -49.023  13.223  22.338  0.00  0.00     0.035 A 
ATOM     18  C   UNL d   1     -48.845  13.048  21.581  0.00  0.00     0.007 A 
ATOM     19  C   UNL d   1     -48.017  12.967  21.528  0.00  0.00     0.009 A 
ENDBRANCH  12  15
ENDBRANCH   8  10
ENDBRANCH   2   7
BRANCH   1  20
ATOM     20  S   UNL d   1     -41.332  13.938  20.624  0.00  0.00     0.271 S 
ATOM     21  O   UNL d   1     -41.549  13.600  19.863  0.00  0.00    -0.200 OA
ATOM     22  O   UNL d   1     -41.112  14.269  21.354  0.00  0.00    -0.200 OA
BRANCH  20  23
ATOM     23  N   UNL d   1     -40.607  14.215  20.277  0.00  0.00    -0.229 N 
ATOM     24  C   UNL d   1     -39.934  14.317  20.748  0.00  0.00     0.092 A 
ATOM     25  C   UNL d   1     -39.227  14.588  20.406  0.00  0.00     0.020 A 
ATOM     26  C   UNL d   1     -39.211  14.751  19.597  0.00  0.00     0.003 A 
ATOM     27  C   UNL d   1     -39.880  14.649  19.135  0.00  0.00     0.020 A 
ATOM     28  C   UNL d   1     -40.567  14.388  19.455  0.00  0.00     0.092 A 
ENDBRANCH  20  23
ENDBRANCH   1  20
TORSDOF 5
ENDMDL
