MODEL 1
REMARK VINA RESULT:      36.1      0.000      0.000
REMARK  7 active torsions:
REMARK  status: ('A' for Active; 'I' for Inactive)
REMARK    1  A    between atoms: C_3  and  C_1 
REMARK    2  A    between atoms: N_5  and  C_2 
REMARK    3  A    between atoms: N_4  and  C_3 
REMARK    4  A    between atoms: C_10  and  C_3 
REMARK    5  A    between atoms: C_13  and  N_4 
REMARK       I    between atoms: C_6  and  N_5 
REMARK    6  A    between atoms: C_8  and  C_13 
REMARK    7  A    between atoms: O_16  and  C_8 
ROOT
ATOM      1  C   UNL d   1      46.211 -18.327  42.746  0.00  0.00     0.083 C 
ENDROOT
BRANCH   1   2
ATOM      2  C   UNL d   1      45.980 -18.992  43.177  0.00  0.00     0.036 A 
ATOM      3  C   UNL d   1      45.330 -19.429  42.958  0.00  0.00     0.086 A 
ATOM      4  C   UNL d   1      45.099 -20.094  43.388  0.00  0.00     0.020 A 
ATOM      5  C   UNL d   1      45.516 -20.321  44.038  0.00  0.00     0.008 A 
ATOM      6  C   UNL d   1      46.195 -19.875  44.279  0.00  0.00     0.035 A 
ATOM      7  C   UNL d   1      46.412 -19.213  43.836  0.00  0.00     0.010 A 
ATOM      8 BR   UNL d   1      46.639 -20.100  44.954  0.00  0.00    -0.049 Br
BRANCH   3   9
ATOM      9  N   UNL d   1      44.889 -19.195  42.276  0.00  0.00    -0.208 NA
ATOM     10  C   UNL d   1      44.097 -19.427  42.201  0.00  0.00     0.279 C 
ATOM     11  O   UNL d   1      43.676 -19.203  41.551  0.00  0.00    -0.265 OA
ATOM     12  C   UNL d   1      43.731 -19.880  42.774  0.00  0.00     0.068 C 
ENDBRANCH   3   9
ENDBRANCH   1   2
BRANCH   1  13
ATOM     13  N   UNL d   1      46.300 -17.601  43.104  0.00  0.00    -0.238 NA
BRANCH  13  14
ATOM     14  C   UNL d   1      45.653 -17.290  43.521  0.00  0.00     0.167 C 
BRANCH  14  15
ATOM     15  C   UNL d   1      45.763 -16.565  43.934  0.00  0.00     0.315 C 
ATOM     16  O   UNL d   1      46.390 -16.512  44.500  0.00  0.00    -0.257 OA
BRANCH  15  17
ATOM     17  O   UNL d   1      45.275 -15.914  43.797  0.00  0.00    -0.295 OA
ATOM     18  C   UNL d   1      45.117 -15.399  44.387  0.00  0.00     0.185 C 
ENDBRANCH  15  17
ENDBRANCH  14  15
ENDBRANCH  13  14
ENDBRANCH   1  13
BRANCH   1  19
ATOM     19  C   UNL d   1      46.355 -18.397  41.941  0.00  0.00     0.018 A 
ATOM     20  C   UNL d   1      46.433 -19.138  41.587  0.00  0.00     0.002 A 
ATOM     21  C   UNL d   1      46.576 -19.227  40.789  0.00  0.00     0.000 A 
ATOM     22  C   UNL d   1      46.647 -18.518  40.314  0.00  0.00     0.000 A 
ATOM     23  C   UNL d   1      46.571 -17.774  40.662  0.00  0.00     0.000 A 
ATOM     24  C   UNL d   1      46.426 -17.711  41.472  0.00  0.00     0.002 A 
ENDBRANCH   1  19
TORSDOF 7
ENDMDL
