MODEL 1
REMARK VINA RESULT:      49.6      0.000      0.000
REMARK  5 active torsions:
REMARK  status: ('A' for Active; 'I' for Inactive)
REMARK    1  A    between atoms: C_8  and  N_1 
REMARK       I    between atoms: N_2  and  C_4 
REMARK    2  A    between atoms: C_3  and  N_2 
REMARK    3  A    between atoms: N_6  and  C_3 
REMARK    4  A    between atoms: C_4  and  C_12 
REMARK    5  A    between atoms: C_7  and  N_6 
ROOT
ATOM      1  N   UNL d   1     -51.109  25.549  33.319  0.00  0.00    -0.168 NA
ATOM      2  C   UNL d   1     -50.592  25.924  33.842  0.00  0.00     0.282 C 
ATOM      3  O   UNL d   1     -50.222  25.496  34.435  0.00  0.00    -0.265 OA
ENDROOT
BRANCH   2   4
ATOM      4  C   UNL d   1     -50.448  26.735  33.765  0.00  0.00     0.058 A 
ATOM      5  C   UNL d   1     -51.033  27.221  33.431  0.00  0.00     0.006 A 
ATOM      6  C   UNL d   1     -50.895  28.024  33.353  0.00  0.00     0.024 A 
ATOM      7  C   UNL d   1     -50.176  28.349  33.606  0.00  0.00     0.127 A 
ATOM      8  C   UNL d   1     -49.599  27.859  33.937  0.00  0.00     0.024 A 
ATOM      9  C   UNL d   1     -49.743  27.049  34.014  0.00  0.00     0.006 A 
BRANCH   7  10
ATOM     10  N   UNL d   1     -50.039  29.155  33.527  0.00  0.00    -0.114 N 
ATOM     11  O   UNL d   1     -49.286  29.465  33.661  0.00  0.00    -0.532 OA
ATOM     12  O   UNL d   1     -50.656  29.652  33.313  0.00  0.00    -0.532 OA
ENDBRANCH   7  10
ENDBRANCH   2   4
BRANCH   1  13
ATOM     13  C   UNL d   1     -51.257  24.743  33.390  0.00  0.00     0.275 C 
ATOM     14  S   UNL d   1     -50.635  24.207  33.317  0.00  0.00    -0.023 SA
BRANCH  13  15
ATOM     15  N   UNL d   1     -52.019  24.468  33.533  0.00  0.00    -0.369 NA
BRANCH  15  16
ATOM     16  C   UNL d   1     -52.769  24.200  33.668  0.00  0.00     0.180 A 
ATOM     17  C   UNL d   1     -53.054  23.643  34.056  0.00  0.00     0.255 A 
ATOM     18  S   UNL d   1     -53.791  23.542  34.069  0.00  0.00    -0.043 SA
ATOM     19  O   UNL d   1     -52.618  23.189  34.429  0.00  0.00    -0.277 OA
ATOM     20  C   UNL d   1     -54.227  23.997  33.696  0.00  0.00     0.041 A 
ATOM     21  C   UNL d   1     -53.942  24.553  33.308  0.00  0.00     0.043 A 
ENDBRANCH  15  16
ENDBRANCH  13  15
ENDBRANCH   1  13
TORSDOF 5
ENDMDL
