MODEL 1
REMARK VINA RESULT:      -9.5      0.000      0.000
REMARK  5 active torsions:
REMARK  status: ('A' for Active; 'I' for Inactive)
REMARK    1  A    between atoms: S_10  and  C_6 
REMARK    2  A    between atoms: C_15  and  S_10 
REMARK    3  A    between atoms: C_11  and  C_15 
REMARK       I    between atoms: N_13  and  C_11 
REMARK    4  A    between atoms: C_17  and  N_13 
REMARK    5  A    between atoms: O_25  and  C_18 
ROOT
ATOM      1  C   UNL d   1      53.413  32.805  53.748  0.00  0.00     0.155 A 
ATOM      2  C   UNL d   1      52.791  32.463  53.320  0.00  0.00     0.107 A 
ATOM      3  N   UNL d   1      52.803  34.090  53.600  0.00  0.00    -0.250 N 
ATOM      4  C   UNL d   1      53.419  33.613  53.887  0.00  0.00     0.285 A 
ATOM      5  N   UNL d   1      52.175  32.939  53.033  0.00  0.00    -0.220 NA
ATOM      6  C   UNL d   1      52.190  33.748  53.177  0.00  0.00     0.182 A 
ATOM      7  N   UNL d   1      53.938  32.207  53.960  0.00  0.00    -0.239 NA
ATOM      8  C   UNL d   1      52.927  31.654  53.266  0.00  0.00     0.037 A 
ATOM      9  C   UNL d   1      53.642  31.491  53.664  0.00  0.00     0.083 A 
ATOM     10  O   UNL d   1      54.039  33.964  54.315  0.00  0.00    -0.265 OA
ATOM     11  C   UNL d   1      52.808  34.906  53.740  0.00  0.00     0.104 C 
ATOM     12  C   UNL d   1      52.507  31.042  52.913  0.00  0.00     0.003 A 
ATOM     13  C   UNL d   1      53.927  30.715  53.704  0.00  0.00     0.019 A 
ATOM     14  C   UNL d   1      52.792  30.266  52.953  0.00  0.00     0.000 A 
ATOM     15  C   UNL d   1      53.498  30.107  53.347  0.00  0.00     0.002 A 
ENDROOT
BRANCH   6  16
ATOM     16  S   UNL d   1      51.578  34.224  52.892  0.00  0.00    -0.044 SA
BRANCH  16  17
ATOM     17  C   UNL d   1      50.803  33.942  52.878  0.00  0.00     0.101 C 
BRANCH  17  18
ATOM     18  C   UNL d   1      50.206  34.393  52.536  0.00  0.00     0.286 C 
ATOM     19  N   UNL d   1      49.501  34.499  52.939  0.00  0.00    -0.208 NA
ATOM     20  O   UNL d   1      50.305  34.736  51.799  0.00  0.00    -0.265 OA
BRANCH  19  21
ATOM     21  C   UNL d   1      48.896  34.952  52.599  0.00  0.00     0.085 A 
ATOM     22  C   UNL d   1      48.563  34.721  51.895  0.00  0.00     0.021 A 
ATOM     23  C   UNL d   1      47.957  35.175  51.555  0.00  0.00     0.026 A 
ATOM     24  C   UNL d   1      47.693  35.860  51.930  0.00  0.00     0.094 A 
ATOM     25  C   UNL d   1      48.044  36.088  52.656  0.00  0.00     0.026 A 
ATOM     26  C   UNL d   1      48.642  35.634  52.985  0.00  0.00     0.021 A 
BRANCH  24  27
ATOM     27  O   UNL d   1      47.086  36.305  51.580  0.00  0.00    -0.328 OA
ATOM     28  C   UNL d   1      46.303  36.173  51.787  0.00  0.00     0.181 C 
ENDBRANCH  24  27
ENDBRANCH  19  21
ENDBRANCH  17  18
ENDBRANCH  16  17
ENDBRANCH   6  16
TORSDOF 5
ENDMDL
MODEL 2
REMARK VINA RESULT:      -8.1      1.224      2.181
REMARK  5 active torsions:
REMARK  status: ('A' for Active; 'I' for Inactive)
REMARK    1  A    between atoms: S_10  and  C_6 
REMARK    2  A    between atoms: C_15  and  S_10 
REMARK    3  A    between atoms: C_11  and  C_15 
REMARK       I    between atoms: N_13  and  C_11 
REMARK    4  A    between atoms: C_17  and  N_13 
REMARK    5  A    between atoms: O_25  and  C_18 
ROOT
ATOM      1  C   UNL d   1      53.686  32.408  53.884  0.00  0.00     0.155 A 
ATOM      2  C   UNL d   1      53.366  33.156  54.039  0.00  0.00     0.107 A 
ATOM      3  N   UNL d   1      52.525  32.072  53.121  0.00  0.00    -0.250 N 
ATOM      4  C   UNL d   1      53.269  31.869  53.428  0.00  0.00     0.285 A 
ATOM      5  N   UNL d   1      52.622  33.360  53.733  0.00  0.00    -0.220 NA
ATOM      6  C   UNL d   1      52.211  32.813  53.276  0.00  0.00     0.182 A 
ATOM      7  N   UNL d   1      54.421  32.362  54.255  0.00  0.00    -0.239 NA
ATOM      8  C   UNL d   1      53.898  33.576  54.505  0.00  0.00     0.037 A 
ATOM      9  C   UNL d   1      54.557  33.084  54.641  0.00  0.00     0.083 A 
ATOM     10  O   UNL d   1      53.583  31.117  53.268  0.00  0.00    -0.265 OA
ATOM     11  C   UNL d   1      52.102  31.529  52.660  0.00  0.00     0.104 C 
ATOM     12  C   UNL d   1      53.880  34.333  54.824  0.00  0.00     0.003 A 
ATOM     13  C   UNL d   1      55.192  33.356  55.097  0.00  0.00     0.019 A 
ATOM     14  C   UNL d   1      54.514  34.606  55.280  0.00  0.00     0.000 A 
ATOM     15  C   UNL d   1      55.165  34.118  55.414  0.00  0.00     0.002 A 
ENDROOT
BRANCH   6  16
ATOM     16  S   UNL d   1      51.470  33.013  52.969  0.00  0.00    -0.044 SA
BRANCH  16  17
ATOM     17  C   UNL d   1      51.277  33.802  52.829  0.00  0.00     0.101 C 
BRANCH  17  18
ATOM     18  C   UNL d   1      50.495  34.017  52.689  0.00  0.00     0.286 C 
ATOM     19  N   UNL d   1      50.326  34.546  52.087  0.00  0.00    -0.208 NA
ATOM     20  O   UNL d   1      49.886  33.711  53.142  0.00  0.00    -0.265 OA
BRANCH  19  21
ATOM     21  C   UNL d   1      49.540  34.766  51.942  0.00  0.00     0.085 A 
ATOM     22  C   UNL d   1      49.174  34.534  51.254  0.00  0.00     0.021 A 
ATOM     23  C   UNL d   1      48.388  34.755  51.109  0.00  0.00     0.026 A 
ATOM     24  C   UNL d   1      47.977  35.209  51.661  0.00  0.00     0.094 A 
ATOM     25  C   UNL d   1      48.364  35.442  52.366  0.00  0.00     0.026 A 
ATOM     26  C   UNL d   1      49.141  35.220  52.502  0.00  0.00     0.021 A 
BRANCH  24  27
ATOM     27  O   UNL d   1      47.190  35.423  51.504  0.00  0.00    -0.328 OA
ATOM     28  C   UNL d   1      46.859  36.079  51.870  0.00  0.00     0.181 C 
ENDBRANCH  24  27
ENDBRANCH  19  21
ENDBRANCH  17  18
ENDBRANCH  16  17
ENDBRANCH   6  16
TORSDOF 5
ENDMDL
MODEL 3
REMARK VINA RESULT:      -7.1      1.978      6.671
REMARK  5 active torsions:
REMARK  status: ('A' for Active; 'I' for Inactive)
REMARK    1  A    between atoms: S_10  and  C_6 
REMARK    2  A    between atoms: C_15  and  S_10 
REMARK    3  A    between atoms: C_11  and  C_15 
REMARK       I    between atoms: N_13  and  C_11 
REMARK    4  A    between atoms: C_17  and  N_13 
REMARK    5  A    between atoms: O_25  and  C_18 
ROOT
ATOM      1  C   UNL d   1      46.020  36.272  53.219  0.00  0.00     0.155 A 
ATOM      2  C   UNL d   1      46.419  35.974  52.557  0.00  0.00     0.107 A 
ATOM      3  N   UNL d   1      47.242  36.252  53.960  0.00  0.00    -0.250 N 
ATOM      4  C   UNL d   1      46.429  36.410  53.917  0.00  0.00     0.285 A 
ATOM      5  N   UNL d   1      47.232  35.815  52.600  0.00  0.00    -0.220 NA
ATOM      6  C   UNL d   1      47.634  35.957  53.304  0.00  0.00     0.182 A 
ATOM      7  N   UNL d   1      45.228  36.376  53.017  0.00  0.00    -0.239 NA
ATOM      8  C   UNL d   1      45.878  35.891  51.944  0.00  0.00     0.037 A 
ATOM      9  C   UNL d   1      45.134  36.141  52.227  0.00  0.00     0.083 A 
ATOM     10  O   UNL d   1      46.037  36.709  54.585  0.00  0.00    -0.265 OA
ATOM     11  C   UNL d   1      47.657  36.390  54.664  0.00  0.00     0.104 C 
ATOM     12  C   UNL d   1      45.952  35.626  51.169  0.00  0.00     0.003 A 
ATOM     13  C   UNL d   1      44.472  36.122  51.730  0.00  0.00     0.019 A 
ATOM     14  C   UNL d   1      45.291  35.606  50.672  0.00  0.00     0.000 A 
ATOM     15  C   UNL d   1      44.556  35.853  50.954  0.00  0.00     0.002 A 
ENDROOT
BRANCH   6  16
ATOM     16  S   UNL d   1      48.444  35.799  53.349  0.00  0.00    -0.044 SA
BRANCH  16  17
ATOM     17  C   UNL d   1      48.788  35.241  52.849  0.00  0.00     0.101 C 
BRANCH  17  18
ATOM     18  C   UNL d   1      49.563  34.996  52.976  0.00  0.00     0.286 C 
ATOM     19  N   UNL d   1      49.839  34.324  52.598  0.00  0.00    -0.208 NA
ATOM     20  O   UNL d   1      50.062  35.413  53.473  0.00  0.00    -0.265 OA
BRANCH  19  21
ATOM     21  C   UNL d   1      50.619  34.072  52.722  0.00  0.00     0.085 A 
ATOM     22  C   UNL d   1      51.215  34.346  52.242  0.00  0.00     0.021 A 
ATOM     23  C   UNL d   1      51.995  34.095  52.366  0.00  0.00     0.026 A 
ATOM     24  C   UNL d   1      52.168  33.567  52.976  0.00  0.00     0.094 A 
ATOM     25  C   UNL d   1      51.545  33.291  53.465  0.00  0.00     0.026 A 
ATOM     26  C   UNL d   1      50.777  33.545  53.335  0.00  0.00     0.021 A 
BRANCH  24  27
ATOM     27  O   UNL d   1      52.953  33.323  53.090  0.00  0.00    -0.328 OA
ATOM     28  C   UNL d   1      53.149  32.842  53.726  0.00  0.00     0.181 C 
ENDBRANCH  24  27
ENDBRANCH  19  21
ENDBRANCH  17  18
ENDBRANCH  16  17
ENDBRANCH   6  16
TORSDOF 5
ENDMDL
