MODEL 1
REMARK VINA RESULT:      12.2      0.000      0.000
REMARK  4 active torsions:
REMARK  status: ('A' for Active; 'I' for Inactive)
REMARK    1  A    between atoms: N_2  and  S_1 
REMARK    2  A    between atoms: C_8  and  S_1 
REMARK       I    between atoms: C_3  and  N_2 
REMARK    3  A    between atoms: C_11  and  N_2 
REMARK       I    between atoms: N_4  and  C_3 
REMARK       I    between atoms: C_5  and  N_4 
REMARK       I    between atoms: N_9  and  C_5 
REMARK    4  A    between atoms: C_13  and  N_9 
ROOT
ATOM      1  N   UNL d   1     -42.672-122.181 -52.359  0.00  0.00    -0.182 N 
ATOM      2  C   UNL d   1     -43.382-121.916 -52.055  0.00  0.00     0.367 C 
ATOM      3  N   UNL d   1     -43.551-122.069 -51.259  0.00  0.00    -0.135 NA
ATOM      4  C   UNL d   1     -44.260-121.815 -50.921  0.00  0.00     0.373 C 
ATOM      5  N   UNL d   1     -44.429-121.967 -50.129  0.00  0.00    -0.191 NA
ATOM      6  O   UNL d   1     -43.922-121.509 -52.510  0.00  0.00    -0.243 OA
ATOM      7  O   UNL d   1     -44.807-121.392 -51.418  0.00  0.00    -0.242 OA
ENDROOT
BRANCH   1   8
ATOM      8  S   UNL d   1     -42.481-122.036 -53.165  0.00  0.00     0.275 S 
ATOM      9  O   UNL d   1     -42.306-121.256 -52.979  0.00  0.00    -0.199 OA
ATOM     10  O   UNL d   1     -42.662-122.819 -53.328  0.00  0.00    -0.199 OA
BRANCH   8  11
ATOM     11  C   UNL d   1     -42.299-121.910 -53.955  0.00  0.00     0.104 A 
ATOM     12  C   UNL d   1     -42.836-122.103 -54.546  0.00  0.00     0.013 A 
ATOM     13  C   UNL d   1     -42.655-121.976 -55.349  0.00  0.00     0.001 A 
ATOM     14  C   UNL d   1     -41.936-121.656 -55.561  0.00  0.00     0.000 A 
ATOM     15  C   UNL d   1     -41.386-121.458 -54.967  0.00  0.00     0.001 A 
ATOM     16  C   UNL d   1     -41.568-121.585 -54.164  0.00  0.00     0.013 A 
ENDBRANCH   8  11
ENDBRANCH   1   8
BRANCH   1  17
ATOM     17  C   UNL d   1     -42.159-122.585 -51.870  0.00  0.00     0.079 A 
ATOM     18  C   UNL d   1     -41.646-122.176 -51.391  0.00  0.00     0.018 A 
ATOM     19  C   UNL d   1     -41.123-122.584 -50.892  0.00  0.00     0.002 A 
ATOM     20  C   UNL d   1     -41.123-123.408 -50.880  0.00  0.00     0.000 A 
ATOM     21  C   UNL d   1     -41.644-123.817 -51.367  0.00  0.00     0.002 A 
ATOM     22  C   UNL d   1     -42.158-123.405 -51.858  0.00  0.00     0.018 A 
ENDBRANCH   1  17
BRANCH   5  23
ATOM     23  C   UNL d   1     -43.883-122.379 -49.665  0.00  0.00     0.086 A 
ATOM     24  C   UNL d   1     -43.916-123.214 -49.601  0.00  0.00     0.019 A 
ATOM     25  C   UNL d   1     -43.374-123.615 -49.142  0.00  0.00     0.002 A 
ATOM     26  C   UNL d   1     -42.781-123.197 -48.732  0.00  0.00     0.000 A 
ATOM     27  C   UNL d   1     -42.738-122.360 -48.789  0.00  0.00     0.002 A 
ATOM     28  C   UNL d   1     -42.343-123.528 -48.360  0.00  0.00     0.000 C 
ATOM     29  C   UNL d   1     -43.299-121.968 -49.262  0.00  0.00     0.019 A 
ENDBRANCH   5  23
TORSDOF 4
ENDMDL
MODEL 2
REMARK VINA RESULT:      12.2      1.409      1.964
REMARK  4 active torsions:
REMARK  status: ('A' for Active; 'I' for Inactive)
REMARK    1  A    between atoms: N_2  and  S_1 
REMARK    2  A    between atoms: C_8  and  S_1 
REMARK       I    between atoms: C_3  and  N_2 
REMARK    3  A    between atoms: C_11  and  N_2 
REMARK       I    between atoms: N_4  and  C_3 
REMARK       I    between atoms: C_5  and  N_4 
REMARK       I    between atoms: N_9  and  C_5 
REMARK    4  A    between atoms: C_13  and  N_9 
ROOT
ATOM      1  N   UNL d   1     -41.921-121.816 -53.106  0.00  0.00    -0.182 N 
ATOM      2  C   UNL d   1     -41.654-121.170 -52.685  0.00  0.00     0.367 C 
ATOM      3  N   UNL d   1     -41.653-121.212 -51.858  0.00  0.00    -0.135 NA
ATOM      4  C   UNL d   1     -41.390-120.575 -51.402  0.00  0.00     0.373 C 
ATOM      5  N   UNL d   1     -41.389-120.617 -50.579  0.00  0.00    -0.191 NA
ATOM      6  O   UNL d   1     -41.393-120.491 -53.053  0.00  0.00    -0.243 OA
ATOM      7  O   UNL d   1     -41.123-119.879 -51.812  0.00  0.00    -0.242 OA
ENDROOT
BRANCH   1   8
ATOM      8  S   UNL d   1     -41.930-121.793 -53.947  0.00  0.00     0.275 S 
ATOM      9  O   UNL d   1     -41.134-121.994 -53.957  0.00  0.00    -0.199 OA
ATOM     10  O   UNL d   1     -42.724-121.593 -53.913  0.00  0.00    -0.199 OA
BRANCH   8  11
ATOM     11  C   UNL d   1     -41.955-121.767 -54.767  0.00  0.00     0.104 A 
ATOM     12  C   UNL d   1     -41.268-121.846 -55.210  0.00  0.00     0.013 A 
ATOM     13  C   UNL d   1     -41.289-121.819 -56.042  0.00  0.00     0.001 A 
ATOM     14  C   UNL d   1     -41.998-121.714 -56.431  0.00  0.00     0.000 A 
ATOM     15  C   UNL d   1     -42.698-121.633 -55.987  0.00  0.00     0.001 A 
ATOM     16  C   UNL d   1     -42.677-121.659 -55.155  0.00  0.00     0.013 A 
ENDBRANCH   8  11
ENDBRANCH   1   8
BRANCH   1  17
ATOM     17  C   UNL d   1     -42.174-122.476 -52.699  0.00  0.00     0.079 A 
ATOM     18  C   UNL d   1     -42.927-122.504 -52.397  0.00  0.00     0.018 A 
ATOM     19  C   UNL d   1     -43.187-123.174 -51.983  0.00  0.00     0.002 A 
ATOM     20  C   UNL d   1     -42.680-123.816 -51.874  0.00  0.00     0.000 A 
ATOM     21  C   UNL d   1     -41.918-123.781 -52.182  0.00  0.00     0.002 A 
ATOM     22  C   UNL d   1     -41.669-123.114 -52.591  0.00  0.00     0.018 A 
ENDBRANCH   1  17
BRANCH   5  23
ATOM     23  C   UNL d   1     -41.653-121.304 -50.203  0.00  0.00     0.086 A 
ATOM     24  C   UNL d   1     -42.458-121.395 -49.989  0.00  0.00     0.019 A 
ATOM     25  C   UNL d   1     -42.713-122.075 -49.618  0.00  0.00     0.002 A 
ATOM     26  C   UNL d   1     -42.173-122.687 -49.449  0.00  0.00     0.000 A 
ATOM     27  C   UNL d   1     -41.364-122.608 -49.658  0.00  0.00     0.002 A 
ATOM     28  C   UNL d   1     -42.386-123.238 -49.147  0.00  0.00     0.000 C 
ATOM     29  C   UNL d   1     -41.123-121.906 -50.036  0.00  0.00     0.019 A 
ENDBRANCH   5  23
TORSDOF 4
ENDMDL
