MODEL 1
REMARK VINA RESULT:      -9.2      0.000      0.000
REMARK  3 active torsions:
REMARK  status: ('A' for Active; 'I' for Inactive)
REMARK    1  A    between atoms: C_13  and  C_5 
REMARK       I    between atoms: C_7  and  N_12 
REMARK    2  A    between atoms: C_10  and  C_7 
REMARK    3  A    between atoms: N_12  and  C_15 
ROOT
ATOM      1  C   UNL d   1      51.297  34.183  52.842  0.00  0.00     0.021 A 
ATOM      2  C   UNL d   1      52.216  33.196  53.336  0.00  0.00     0.085 A 
ATOM      3  C   UNL d   1      51.466  33.399  53.059  0.00  0.00     0.021 A 
ATOM      4  C   UNL d   1      51.884  34.755  52.906  0.00  0.00     0.002 A 
ATOM      5  C   UNL d   1      52.630  34.563  53.180  0.00  0.00     0.002 A 
ATOM      6  C   UNL d   1      52.799  33.779  53.397  0.00  0.00     0.019 A 
ENDROOT
BRANCH   1   7
ATOM      7  C   UNL d   1      50.543  34.372  52.566  0.00  0.00     0.102 A 
ATOM      8  N   UNL d   1      50.361  34.217  51.769  0.00  0.00    -0.162 NA
ATOM      9  N   UNL d   1      49.600  34.406  51.482  0.00  0.00    -0.189 N 
ATOM     10  C   UNL d   1      49.032  34.745  51.987  0.00  0.00     0.187 A 
ATOM     11  C   UNL d   1      49.266  34.320  50.744  0.00  0.00     0.224 A 
ATOM     12  N   UNL d   1      48.368  34.857  51.544  0.00  0.00    -0.127 NA
ATOM     13  C   UNL d   1      49.237  34.893  52.784  0.00  0.00     0.042 A 
ATOM     14  N   UNL d   1      48.503  34.598  50.777  0.00  0.00    -0.124 NA
ATOM     15  C   UNL d   1      49.993  34.704  53.067  0.00  0.00     0.024 A 
ENDBRANCH   1   7
BRANCH   2  16
ATOM     16  N   UNL d   1      52.382  32.422  53.550  0.00  0.00    -0.206 NA
ATOM     17  C   UNL d   1      52.791  31.934  53.032  0.00  0.00     0.302 C 
ATOM     18  O   UNL d   1      53.038  32.216  52.295  0.00  0.00    -0.263 OA
BRANCH  17  19
ATOM     19  C   UNL d   1      52.959  31.158  53.247  0.00  0.00     0.158 A 
ATOM     20  O   UNL d   1      53.494  30.916  53.820  0.00  0.00    -0.300 OA
ATOM     21  C   UNL d   1      53.485  30.094  53.853  0.00  0.00     0.123 A 
ATOM     22  C   UNL d   1      52.936  29.820  53.291  0.00  0.00     0.029 A 
ATOM     23  C   UNL d   1      52.612  30.477  52.919  0.00  0.00     0.032 A 
ENDBRANCH  17  19
ENDBRANCH   2  16
TORSDOF 3
ENDMDL
MODEL 2
REMARK VINA RESULT:      -9.1      1.834      5.089
REMARK  3 active torsions:
REMARK  status: ('A' for Active; 'I' for Inactive)
REMARK    1  A    between atoms: C_13  and  C_5 
REMARK       I    between atoms: C_7  and  N_12 
REMARK    2  A    between atoms: C_10  and  C_7 
REMARK    3  A    between atoms: N_12  and  C_15 
ROOT
ATOM      1  C   UNL d   1      53.330  31.740  53.442  0.00  0.00     0.021 A 
ATOM      2  C   UNL d   1      52.692  32.936  52.968  0.00  0.00     0.085 A 
ATOM      3  C   UNL d   1      52.672  32.124  53.108  0.00  0.00     0.021 A 
ATOM      4  C   UNL d   1      54.000  32.178  53.630  0.00  0.00     0.002 A 
ATOM      5  C   UNL d   1      54.028  32.983  53.494  0.00  0.00     0.002 A 
ATOM      6  C   UNL d   1      53.371  33.367  53.161  0.00  0.00     0.019 A 
ENDROOT
BRANCH   1   7
ATOM      7  C   UNL d   1      53.298  30.927  53.577  0.00  0.00     0.102 A 
ATOM      8  N   UNL d   1      53.341  30.654  54.362  0.00  0.00    -0.162 NA
ATOM      9  N   UNL d   1      53.309  29.832  54.507  0.00  0.00    -0.189 N 
ATOM     10  C   UNL d   1      53.235  29.295  53.876  0.00  0.00     0.187 A 
ATOM     11  C   UNL d   1      53.339  29.406  55.202  0.00  0.00     0.224 A 
ATOM     12  N   UNL d   1      53.220  28.557  54.201  0.00  0.00    -0.127 NA
ATOM     13  C   UNL d   1      53.192  29.593  53.096  0.00  0.00     0.042 A 
ATOM     14  N   UNL d   1      53.284  28.617  55.018  0.00  0.00    -0.124 NA
ATOM     15  C   UNL d   1      53.224  30.409  52.953  0.00  0.00     0.024 A 
ENDBRANCH   1   7
BRANCH   2  16
ATOM     16  N   UNL d   1      52.043  33.315  52.639  0.00  0.00    -0.206 NA
ATOM     17  C   UNL d   1      51.506  33.701  53.125  0.00  0.00     0.302 C 
ATOM     18  O   UNL d   1      51.613  33.712  53.945  0.00  0.00    -0.263 OA
BRANCH  17  19
ATOM     19  C   UNL d   1      50.855  34.081  52.795  0.00  0.00     0.158 A 
ATOM     20  O   UNL d   1      50.708  34.188  51.995  0.00  0.00    -0.300 OA
ATOM     21  C   UNL d   1      49.997  34.594  51.914  0.00  0.00     0.123 A 
ATOM     22  C   UNL d   1      49.697  34.742  52.676  0.00  0.00     0.029 A 
ATOM     23  C   UNL d   1      50.227  34.425  53.217  0.00  0.00     0.032 A 
ENDBRANCH  17  19
ENDBRANCH   2  16
TORSDOF 3
ENDMDL
MODEL 3
REMARK VINA RESULT:      -9.0      1.648      4.662
REMARK  3 active torsions:
REMARK  status: ('A' for Active; 'I' for Inactive)
REMARK    1  A    between atoms: C_13  and  C_5 
REMARK       I    between atoms: C_7  and  N_12 
REMARK    2  A    between atoms: C_10  and  C_7 
REMARK    3  A    between atoms: N_12  and  C_15 
ROOT
ATOM      1  C   UNL d   1      52.645  33.326  53.226  0.00  0.00     0.021 A 
ATOM      2  C   UNL d   1      51.693  34.184  52.578  0.00  0.00     0.085 A 
ATOM      3  C   UNL d   1      52.003  33.431  52.709  0.00  0.00     0.021 A 
ATOM      4  C   UNL d   1      52.970  33.980  53.605  0.00  0.00     0.002 A 
ATOM      5  C   UNL d   1      52.670  34.730  53.481  0.00  0.00     0.002 A 
ATOM      6  C   UNL d   1      52.027  34.835  52.964  0.00  0.00     0.019 A 
ENDROOT
BRANCH   1   7
ATOM      7  C   UNL d   1      52.946  32.568  53.348  0.00  0.00     0.102 A 
ATOM      8  N   UNL d   1      52.550  31.923  53.001  0.00  0.00    -0.162 NA
ATOM      9  N   UNL d   1      52.848  31.153  53.121  0.00  0.00    -0.189 N 
ATOM     10  C   UNL d   1      53.531  31.031  53.581  0.00  0.00     0.187 A 
ATOM     11  C   UNL d   1      52.587  30.427  52.857  0.00  0.00     0.224 A 
ATOM     12  N   UNL d   1      53.668  30.237  53.585  0.00  0.00    -0.127 NA
ATOM     13  C   UNL d   1      53.912  31.694  53.920  0.00  0.00     0.042 A 
ATOM     14  N   UNL d   1      53.090  29.857  53.142  0.00  0.00    -0.124 NA
ATOM     15  C   UNL d   1      53.615  32.459  53.800  0.00  0.00     0.024 A 
ENDBRANCH   1   7
BRANCH   2  16
ATOM     16  N   UNL d   1      51.059  34.287  52.068  0.00  0.00    -0.206 NA
ATOM     17  C   UNL d   1      50.305  34.397  52.373  0.00  0.00     0.302 C 
ATOM     18  O   UNL d   1      50.177  34.404  53.189  0.00  0.00    -0.263 OA
BRANCH  17  19
ATOM     19  C   UNL d   1      49.668  34.501  51.861  0.00  0.00     0.158 A 
ATOM     20  O   UNL d   1      49.634  34.270  51.074  0.00  0.00    -0.300 OA
ATOM     21  C   UNL d   1      48.898  34.481  50.774  0.00  0.00     0.123 A 
ATOM     22  C   UNL d   1      48.467  34.849  51.384  0.00  0.00     0.029 A 
ATOM     23  C   UNL d   1      48.943  34.860  52.053  0.00  0.00     0.032 A 
ENDBRANCH  17  19
ENDBRANCH   2  16
TORSDOF 3
ENDMDL
MODEL 4
REMARK VINA RESULT:      -8.3      2.077      5.003
REMARK  3 active torsions:
REMARK  status: ('A' for Active; 'I' for Inactive)
REMARK    1  A    between atoms: C_13  and  C_5 
REMARK       I    between atoms: C_7  and  N_12 
REMARK    2  A    between atoms: C_10  and  C_7 
REMARK    3  A    between atoms: N_12  and  C_15 
ROOT
ATOM      1  C   UNL d   1      53.004  32.707  53.536  0.00  0.00     0.021 A 
ATOM      2  C   UNL d   1      51.624  32.913  53.195  0.00  0.00     0.085 A 
ATOM      3  C   UNL d   1      52.322  33.181  53.545  0.00  0.00     0.021 A 
ATOM      4  C   UNL d   1      52.978  31.968  53.176  0.00  0.00     0.002 A 
ATOM      5  C   UNL d   1      52.291  31.694  52.827  0.00  0.00     0.002 A 
ATOM      6  C   UNL d   1      51.609  32.168  52.836  0.00  0.00     0.019 A 
ENDROOT
BRANCH   1   7
ATOM      7  C   UNL d   1      53.695  32.986  53.889  0.00  0.00     0.102 A 
ATOM      8  N   UNL d   1      53.664  33.228  54.685  0.00  0.00    -0.162 NA
ATOM      9  N   UNL d   1      54.360  33.512  55.049  0.00  0.00    -0.189 N 
ATOM     10  C   UNL d   1      55.073  33.553  54.622  0.00  0.00     0.187 A 
ATOM     11  C   UNL d   1      54.499  33.784  55.805  0.00  0.00     0.224 A 
ATOM     12  N   UNL d   1      55.628  33.847  55.128  0.00  0.00    -0.127 NA
ATOM     13  C   UNL d   1      55.080  33.304  53.824  0.00  0.00     0.042 A 
ATOM     14  N   UNL d   1      55.283  33.992  55.859  0.00  0.00    -0.124 NA
ATOM     15  C   UNL d   1      54.389  33.022  53.463  0.00  0.00     0.024 A 
ENDBRANCH   1   7
BRANCH   2  16
ATOM     16  N   UNL d   1      50.951  33.381  53.203  0.00  0.00    -0.206 NA
ATOM     17  C   UNL d   1      50.825  33.926  52.602  0.00  0.00     0.302 C 
ATOM     18  O   UNL d   1      51.371  34.007  51.987  0.00  0.00    -0.263 OA
BRANCH  17  19
ATOM     19  C   UNL d   1      50.150  34.395  52.611  0.00  0.00     0.158 A 
ATOM     20  O   UNL d   1      49.881  34.851  53.239  0.00  0.00    -0.300 OA
ATOM     21  C   UNL d   1      49.188  35.229  53.007  0.00  0.00     0.123 A 
ATOM     22  C   UNL d   1      49.024  35.006  52.223  0.00  0.00     0.029 A 
ATOM     23  C   UNL d   1      49.617  34.493  51.980  0.00  0.00     0.032 A 
ENDBRANCH  17  19
ENDBRANCH   2  16
TORSDOF 3
ENDMDL
MODEL 5
REMARK VINA RESULT:      -7.8      1.261      2.133
REMARK  3 active torsions:
REMARK  status: ('A' for Active; 'I' for Inactive)
REMARK    1  A    between atoms: C_13  and  C_5 
REMARK       I    between atoms: C_7  and  N_12 
REMARK    2  A    between atoms: C_10  and  C_7 
REMARK    3  A    between atoms: N_12  and  C_15 
ROOT
ATOM      1  C   UNL d   1      53.133  33.186  53.471  0.00  0.00     0.021 A 
ATOM      2  C   UNL d   1      53.701  31.954  53.942  0.00  0.00     0.085 A 
ATOM      3  C   UNL d   1      53.048  32.447  53.843  0.00  0.00     0.021 A 
ATOM      4  C   UNL d   1      53.874  33.420  53.203  0.00  0.00     0.002 A 
ATOM      5  C   UNL d   1      54.528  32.938  53.297  0.00  0.00     0.002 A 
ATOM      6  C   UNL d   1      54.443  32.199  53.669  0.00  0.00     0.019 A 
ENDROOT
BRANCH   1   7
ATOM      7  C   UNL d   1      52.472  33.670  53.378  0.00  0.00     0.102 A 
ATOM      8  N   UNL d   1      51.865  33.419  52.867  0.00  0.00    -0.162 NA
ATOM      9  N   UNL d   1      51.192  33.903  52.768  0.00  0.00    -0.189 N 
ATOM     10  C   UNL d   1      51.130  34.627  53.174  0.00  0.00     0.187 A 
ATOM     11  C   UNL d   1      50.521  33.807  52.315  0.00  0.00     0.224 A 
ATOM     12  N   UNL d   1      50.425  34.953  52.959  0.00  0.00    -0.127 NA
ATOM     13  C   UNL d   1      51.752  34.859  53.683  0.00  0.00     0.042 A 
ATOM     14  N   UNL d   1      50.043  34.454  52.429  0.00  0.00    -0.124 NA
ATOM     15  C   UNL d   1      52.420  34.376  53.780  0.00  0.00     0.024 A 
ENDBRANCH   1   7
BRANCH   2  16
ATOM     16  N   UNL d   1      53.617  31.225  54.308  0.00  0.00    -0.206 NA
ATOM     17  C   UNL d   1      53.499  30.551  53.855  0.00  0.00     0.302 C 
ATOM     18  O   UNL d   1      53.464  30.600  53.030  0.00  0.00    -0.263 OA
BRANCH  17  19
ATOM     19  C   UNL d   1      53.415  29.820  54.223  0.00  0.00     0.158 A 
ATOM     20  O   UNL d   1      53.294  29.689  55.024  0.00  0.00    -0.300 OA
ATOM     21  C   UNL d   1      53.241  28.878  55.149  0.00  0.00     0.123 A 
ATOM     22  C   UNL d   1      53.331  28.498  54.415  0.00  0.00     0.029 A 
ATOM     23  C   UNL d   1      53.437  29.079  53.845  0.00  0.00     0.032 A 
ENDBRANCH  17  19
ENDBRANCH   2  16
TORSDOF 3
ENDMDL
MODEL 6
REMARK VINA RESULT:      -7.6      2.437      5.168
REMARK  3 active torsions:
REMARK  status: ('A' for Active; 'I' for Inactive)
REMARK    1  A    between atoms: C_13  and  C_5 
REMARK       I    between atoms: C_7  and  N_12 
REMARK    2  A    between atoms: C_10  and  C_7 
REMARK    3  A    between atoms: N_12  and  C_15 
ROOT
ATOM      1  C   UNL d   1      51.658  34.231  53.177  0.00  0.00     0.021 A 
ATOM      2  C   UNL d   1      50.276  34.576  52.990  0.00  0.00     0.085 A 
ATOM      3  C   UNL d   1      50.961  34.594  53.448  0.00  0.00     0.021 A 
ATOM      4  C   UNL d   1      51.657  33.852  52.447  0.00  0.00     0.002 A 
ATOM      5  C   UNL d   1      50.983  33.828  51.985  0.00  0.00     0.002 A 
ATOM      6  C   UNL d   1      50.287  34.192  52.257  0.00  0.00     0.019 A 
ENDROOT
BRANCH   1   7
ATOM      7  C   UNL d   1      52.336  34.257  53.645  0.00  0.00     0.102 A 
ATOM      8  N   UNL d   1      52.648  33.541  53.932  0.00  0.00    -0.162 NA
ATOM      9  N   UNL d   1      53.335  33.560  54.407  0.00  0.00    -0.189 N 
ATOM     10  C   UNL d   1      53.702  34.284  54.590  0.00  0.00     0.187 A 
ATOM     11  C   UNL d   1      53.761  32.962  54.761  0.00  0.00     0.224 A 
ATOM     12  N   UNL d   1      54.340  34.110  55.050  0.00  0.00    -0.127 NA
ATOM     13  C   UNL d   1      53.371  34.991  54.290  0.00  0.00     0.042 A 
ATOM     14  N   UNL d   1      54.384  33.297  55.161  0.00  0.00    -0.124 NA
ATOM     15  C   UNL d   1      52.688  34.971  53.819  0.00  0.00     0.024 A 
ENDBRANCH   1   7
BRANCH   2  16
ATOM     16  N   UNL d   1      49.589  34.934  53.258  0.00  0.00    -0.206 NA
ATOM     17  C   UNL d   1      49.072  35.278  52.721  0.00  0.00     0.302 C 
ATOM     18  O   UNL d   1      49.237  35.266  51.911  0.00  0.00    -0.263 OA
BRANCH  17  19
ATOM     19  C   UNL d   1      48.383  35.638  52.990  0.00  0.00     0.158 A 
ATOM     20  O   UNL d   1      48.246  35.924  53.747  0.00  0.00    -0.300 OA
ATOM     21  C   UNL d   1      47.487  36.238  53.773  0.00  0.00     0.123 A 
ATOM     22  C   UNL d   1      47.145  36.146  53.020  0.00  0.00     0.029 A 
ATOM     23  C   UNL d   1      47.698  35.776  52.539  0.00  0.00     0.032 A 
ENDBRANCH  17  19
ENDBRANCH   2  16
TORSDOF 3
ENDMDL
MODEL 7
REMARK VINA RESULT:      -7.5      2.730      3.623
REMARK  3 active torsions:
REMARK  status: ('A' for Active; 'I' for Inactive)
REMARK    1  A    between atoms: C_13  and  C_5 
REMARK       I    between atoms: C_7  and  N_12 
REMARK    2  A    between atoms: C_10  and  C_7 
REMARK    3  A    between atoms: N_12  and  C_15 
ROOT
ATOM      1  C   UNL d   1      53.182  32.565  53.587  0.00  0.00     0.021 A 
ATOM      2  C   UNL d   1      53.313  31.135  53.592  0.00  0.00     0.085 A 
ATOM      3  C   UNL d   1      53.419  31.863  53.964  0.00  0.00     0.021 A 
ATOM      4  C   UNL d   1      52.841  32.527  52.840  0.00  0.00     0.002 A 
ATOM      5  C   UNL d   1      52.732  31.809  52.464  0.00  0.00     0.002 A 
ATOM      6  C   UNL d   1      52.968  31.107  52.841  0.00  0.00     0.019 A 
ENDROOT
BRANCH   1   7
ATOM      7  C   UNL d   1      53.294  33.286  53.970  0.00  0.00     0.102 A 
ATOM      8  N   UNL d   1      52.779  33.915  53.792  0.00  0.00    -0.162 NA
ATOM      9  N   UNL d   1      52.886  34.649  54.175  0.00  0.00    -0.189 N 
ATOM     10  C   UNL d   1      53.499  34.750  54.729  0.00  0.00     0.187 A 
ATOM     11  C   UNL d   1      52.477  35.352  54.116  0.00  0.00     0.224 A 
ATOM     12  N   UNL d   1      53.449  35.510  54.992  0.00  0.00    -0.127 NA
ATOM     13  C   UNL d   1      54.005  34.105  54.892  0.00  0.00     0.042 A 
ATOM     14  N   UNL d   1      52.822  35.888  54.620  0.00  0.00    -0.124 NA
ATOM     15  C   UNL d   1      53.897  33.376  54.511  0.00  0.00     0.024 A 
ENDBRANCH   1   7
BRANCH   2  16
ATOM     16  N   UNL d   1      53.546  30.442  53.964  0.00  0.00    -0.206 NA
ATOM     17  C   UNL d   1      53.001  29.841  54.087  0.00  0.00     0.302 C 
ATOM     18  O   UNL d   1      52.217  29.926  53.838  0.00  0.00    -0.263 OA
BRANCH  17  19
ATOM     19  C   UNL d   1      53.235  29.146  54.460  0.00  0.00     0.158 A 
ATOM     20  O   UNL d   1      53.490  28.458  54.092  0.00  0.00    -0.300 OA
ATOM     21  C   UNL d   1      53.668  27.904  54.673  0.00  0.00     0.123 A 
ATOM     22  C   UNL d   1      53.522  28.253  55.414  0.00  0.00     0.029 A 
ATOM     23  C   UNL d   1      53.256  29.017  55.281  0.00  0.00     0.032 A 
ENDBRANCH  17  19
ENDBRANCH   2  16
TORSDOF 3
ENDMDL
