MODEL 1
REMARK VINA RESULT:     108.0      0.000      0.000
REMARK  5 active torsions:
REMARK  status: ('A' for Active; 'I' for Inactive)
REMARK    1  A    between atoms: C_10  and  N_1 
REMARK    2  A    between atoms: S_7  and  C_4 
REMARK    3  A    between atoms: C_9  and  C_6 
REMARK    4  A    between atoms: C_8  and  S_7 
REMARK    5  A    between atoms: N_14  and  C_13 
ROOT
ATOM      1  N   UNL d   1     -54.860-100.899 -43.406  0.00  0.00    -0.241 N 
ATOM      2  C   UNL d   1     -54.811-100.110 -43.274  0.00  0.00     0.268 A 
ATOM      3  C   UNL d   1     -54.840-101.314 -42.703  0.00  0.00     0.273 A 
ATOM      4  C   UNL d   1     -54.775-100.752 -42.101  0.00  0.00     0.091 A 
ATOM      5  C   UNL d   1     -54.757-100.002 -42.459  0.00  0.00     0.072 A 
ATOM      6  O   UNL d   1     -54.817 -99.538 -43.865  0.00  0.00    -0.267 OA
ATOM      7  O   UNL d   1     -54.878-102.150 -42.620  0.00  0.00    -0.266 OA
ENDROOT
BRANCH   4   8
ATOM      8  S   UNL d   1     -54.742-101.004 -41.328  0.00  0.00    -0.082 SA
BRANCH   8   9
ATOM      9  C   UNL d   1     -54.801-100.459 -40.689  0.00  0.00     0.035 A 
ATOM     10  C   UNL d   1     -54.882-100.732 -39.895  0.00  0.00     0.070 A 
ATOM     11  C   UNL d   1     -54.937-100.165 -39.302  0.00  0.00     0.007 A 
ATOM     12  C   UNL d   1     -54.913 -99.351 -39.490  0.00  0.00     0.000 A 
ATOM     13  C   UNL d   1     -54.833 -99.098 -40.288  0.00  0.00     0.001 A 
ATOM     14  C   UNL d   1     -54.777 -99.656 -40.882  0.00  0.00     0.007 A 
BRANCH  10  15
ATOM     15  C   UNL d   1     -54.903-101.517 -39.723  0.00  0.00     0.211 C 
ATOM     16  O   UNL d   1     -54.791-102.067 -40.319  0.00  0.00    -0.644 OA
ATOM     17  O   UNL d   1     -55.035-101.806 -38.967  0.00  0.00    -0.644 OA
ENDBRANCH  10  15
ENDBRANCH   8   9
ENDBRANCH   4   8
BRANCH   1  18
ATOM     18  C   UNL d   1     -54.923-101.198 -44.210  0.00  0.00     0.070 A 
ATOM     19  C   UNL d   1     -54.792-100.705 -44.839  0.00  0.00     0.019 A 
ATOM     20  C   UNL d   1     -54.857-101.009 -45.610  0.00  0.00     0.019 A 
ATOM     21  C   UNL d   1     -55.053-101.802 -45.724  0.00  0.00     0.064 A 
ATOM     22  C   UNL d   1     -55.186-102.301 -45.079  0.00  0.00     0.019 A 
ATOM     23  C   UNL d   1     -55.123-102.002 -44.316  0.00  0.00     0.019 A 
BRANCH  21  24
ATOM     24  N   UNL d   1     -55.117-102.100 -46.480  0.00  0.00    -0.301 N 
ATOM     25  C   UNL d   1     -54.738-102.810 -46.668  0.00  0.00     0.100 C 
ATOM     26  C   UNL d   1     -55.554-101.694 -47.037  0.00  0.00     0.100 C 
ENDBRANCH  21  24
ENDBRANCH   1  18
TORSDOF 5
ENDMDL
MODEL 2
REMARK VINA RESULT:     109.7      2.675      3.497
REMARK  5 active torsions:
REMARK  status: ('A' for Active; 'I' for Inactive)
REMARK    1  A    between atoms: C_10  and  N_1 
REMARK    2  A    between atoms: S_7  and  C_4 
REMARK    3  A    between atoms: C_9  and  C_6 
REMARK    4  A    between atoms: C_8  and  S_7 
REMARK    5  A    between atoms: N_14  and  C_13 
ROOT
ATOM      1  N   UNL d   1     -56.774 -99.739 -43.587  0.00  0.00    -0.241 N 
ATOM      2  C   UNL d   1     -56.837 -99.458 -42.839  0.00  0.00     0.268 A 
ATOM      3  C   UNL d   1     -56.074-100.148 -43.688  0.00  0.00     0.273 A 
ATOM      4  C   UNL d   1     -55.680-100.120 -42.962  0.00  0.00     0.091 A 
ATOM      5  C   UNL d   1     -56.157 -99.689 -42.434  0.00  0.00     0.072 A 
ATOM      6  O   UNL d   1     -57.474 -99.022 -42.557  0.00  0.00    -0.267 OA
ATOM      7  O   UNL d   1     -55.816-100.521 -44.396  0.00  0.00    -0.266 OA
ENDROOT
BRANCH   4   8
ATOM      8  S   UNL d   1     -54.957-100.485 -42.892  0.00  0.00    -0.082 SA
BRANCH   8   9
ATOM      9  C   UNL d   1     -54.875-101.214 -42.478  0.00  0.00     0.035 A 
ATOM     10  C   UNL d   1     -54.878-101.948 -42.893  0.00  0.00     0.070 A 
ATOM     11  C   UNL d   1     -54.796-102.636 -42.449  0.00  0.00     0.007 A 
ATOM     12  C   UNL d   1     -54.713-102.597 -41.618  0.00  0.00     0.000 A 
ATOM     13  C   UNL d   1     -54.713-101.855 -41.223  0.00  0.00     0.001 A 
ATOM     14  C   UNL d   1     -54.795-101.169 -41.657  0.00  0.00     0.007 A 
BRANCH  10  15
ATOM     15  C   UNL d   1     -54.958-101.977 -43.693  0.00  0.00     0.211 C 
ATOM     16  O   UNL d   1     -55.276-102.644 -44.045  0.00  0.00    -0.644 OA
ATOM     17  O   UNL d   1     -54.733-101.363 -44.187  0.00  0.00    -0.644 OA
ENDBRANCH  10  15
ENDBRANCH   8   9
ENDBRANCH   4   8
BRANCH   1  18
ATOM     18  C   UNL d   1     -57.401 -99.590 -44.156  0.00  0.00     0.070 A 
ATOM     19  C   UNL d   1     -57.799 -98.885 -44.149  0.00  0.00     0.019 A 
ATOM     20  C   UNL d   1     -58.403 -98.756 -44.706  0.00  0.00     0.019 A 
ATOM     21  C   UNL d   1     -58.587 -99.342 -45.255  0.00  0.00     0.064 A 
ATOM     22  C   UNL d   1     -58.178-100.061 -45.259  0.00  0.00     0.019 A 
ATOM     23  C   UNL d   1     -57.582-100.190 -44.709  0.00  0.00     0.019 A 
BRANCH  21  24
ATOM     24  N   UNL d   1     -59.179 -99.217 -45.801  0.00  0.00    -0.301 N 
ATOM     25  C   UNL d   1     -59.929 -99.538 -45.667  0.00  0.00     0.100 C 
ATOM     26  C   UNL d   1     -59.021 -98.777 -46.471  0.00  0.00     0.100 C 
ENDBRANCH  21  24
ENDBRANCH   1  18
TORSDOF 5
ENDMDL
