MODEL 1
REMARK VINA RESULT:      65.4      0.000      0.000
REMARK  8 active torsions:
REMARK  status: ('A' for Active; 'I' for Inactive)
REMARK       I    between atoms: C_2  and  N_1 
REMARK    1  A    between atoms: C_3  and  N_1 
REMARK    2  A    between atoms: C_4  and  N_1 
REMARK    3  A    between atoms: C_6  and  C_2 
REMARK    4  A    between atoms: C_5  and  C_4 
REMARK    5  A    between atoms: C_7  and  C_5 
REMARK    6  A    between atoms: O_19  and  C_7 
REMARK    7  A    between atoms: C_9  and  O_11 
REMARK    8  A    between atoms: O_11  and  C_16 
ROOT
ATOM      1  N   UNL d   1     -49.780  27.118  34.704  0.00  0.00    -0.258 N 
ATOM      2  C   UNL d   1     -49.944  26.901  33.925  0.00  0.00     0.266 C 
ATOM      3  O   UNL d   1     -49.508  27.227  33.306  0.00  0.00    -0.267 OA
ENDROOT
BRANCH   1   4
ATOM      4  C   UNL d   1     -49.176  27.666  34.861  0.00  0.00     0.150 A 
ATOM      5  N   UNL d   1     -48.489  27.426  35.247  0.00  0.00    -0.227 NA
ATOM      6  C   UNL d   1     -47.893  27.972  35.401  0.00  0.00     0.101 A 
ATOM      7  C   UNL d   1     -47.984  28.763  35.168  0.00  0.00     0.021 A 
ATOM      8  C   UNL d   1     -48.670  29.003  34.782  0.00  0.00     0.005 A 
ATOM      9  C   UNL d   1     -49.267  28.457  34.628  0.00  0.00     0.037 A 
ENDBRANCH   1   4
BRANCH   1  10
ATOM     10  C   UNL d   1     -50.208  26.799  35.323  0.00  0.00     0.090 C 
BRANCH  10  11
ATOM     11  C   UNL d   1     -50.282  27.222  36.038  0.00  0.00     0.087 C 
BRANCH  11  12
ATOM     12  C   UNL d   1     -50.607  26.861  36.703  0.00  0.00     0.297 C 
ATOM     13  O   UNL d   1     -51.154  26.249  36.616  0.00  0.00    -0.259 OA
BRANCH  12  14
ATOM     14  O   UNL d   1     -50.385  27.111  37.456  0.00  0.00    -0.296 OA
ATOM     15  C   UNL d   1     -51.100  27.208  37.868  0.00  0.00     0.185 C 
ENDBRANCH  12  14
ENDBRANCH  11  12
ENDBRANCH  10  11
ENDBRANCH   1  10
BRANCH   2  16
ATOM     16  C   UNL d   1     -50.544  26.357  33.769  0.00  0.00     0.057 A 
ATOM     17  C   UNL d   1     -50.349  25.595  33.526  0.00  0.00     0.007 A 
ATOM     18  C   UNL d   1     -50.952  25.055  33.372  0.00  0.00     0.025 A 
ATOM     19  C   UNL d   1     -51.742  25.276  33.460  0.00  0.00     0.103 A 
ATOM     20  C   UNL d   1     -51.927  26.041  33.703  0.00  0.00     0.025 A 
ATOM     21  C   UNL d   1     -51.329  26.594  33.862  0.00  0.00     0.007 A 
BRANCH  19  22
ATOM     22  O   UNL d   1     -52.344  24.736  33.306  0.00  0.00    -0.273 OA
BRANCH  22  23
ATOM     23  C   UNL d   1     -52.373  24.021  33.716  0.00  0.00     0.300 C 
ATOM     24  O   UNL d   1     -52.529  24.016  34.525  0.00  0.00    -0.259 OA
ATOM     25  C   UNL d   1     -52.244  23.307  33.312  0.00  0.00     0.074 C 
ENDBRANCH  22  23
ENDBRANCH  19  22
ENDBRANCH   2  16
TORSDOF 8
ENDMDL
