MODEL 1
REMARK VINA RESULT:      -7.9      0.000      0.000
REMARK  4 active torsions:
REMARK  status: ('A' for Active; 'I' for Inactive)
REMARK    1  A    between atoms: C_8  and  C_1 
REMARK    2  A    between atoms: N_5  and  C_2 
REMARK       I    between atoms: C_7  and  N_5 
REMARK    3  A    between atoms: C_10  and  C_7 
REMARK    4  A    between atoms: O_17  and  C_16 
ROOT
ATOM      1  N   UNL d   1      51.182  33.455  53.019  0.00  0.00    -0.165 NA
ATOM      2  C   UNL d   1      51.075  34.117  52.552  0.00  0.00     0.282 C 
ATOM      3  O   UNL d   1      51.725  34.509  52.223  0.00  0.00    -0.265 OA
ENDROOT
BRANCH   1   4
ATOM      4  C   UNL d   1      51.941  33.169  53.167  0.00  0.00     0.297 A 
ATOM      5  O   UNL d   1      52.447  33.444  53.758  0.00  0.00    -0.253 OA
ATOM      6  C   UNL d   1      53.149  33.007  53.714  0.00  0.00     0.212 A 
ATOM      7  N   UNL d   1      53.070  32.471  53.100  0.00  0.00    -0.119 NA
ATOM      8  N   UNL d   1      52.325  32.570  52.762  0.00  0.00    -0.101 NA
BRANCH   6   9
ATOM      9  C   UNL d   1      53.809  33.103  54.208  0.00  0.00     0.072 A 
ATOM     10  S   UNL d   1      53.805  33.090  55.028  0.00  0.00    -0.083 SA
ATOM     11  C   UNL d   1      54.577  33.207  55.289  0.00  0.00     0.035 A 
ATOM     12  C   UNL d   1      55.063  33.294  54.623  0.00  0.00     0.008 A 
ATOM     13  C   UNL d   1      54.583  33.229  53.952  0.00  0.00     0.011 A 
ENDBRANCH   6   9
ENDBRANCH   1   4
BRANCH   2  14
ATOM     14  C   UNL d   1      50.312  34.403  52.404  0.00  0.00     0.060 A 
ATOM     15  C   UNL d   1      49.914  34.849  52.974  0.00  0.00     0.029 A 
ATOM     16  C   UNL d   1      49.160  35.129  52.823  0.00  0.00     0.094 A 
ATOM     17  C   UNL d   1      48.799  34.967  52.102  0.00  0.00     0.024 A 
ATOM     18  C   UNL d   1      49.194  34.521  51.527  0.00  0.00     0.002 A 
ATOM     19  C   UNL d   1      49.949  34.241  51.683  0.00  0.00     0.005 A 
BRANCH  16  20
ATOM     20  O   UNL d   1      48.747  35.586  53.400  0.00  0.00    -0.328 OA
ATOM     21  C   UNL d   1      48.052  35.967  53.204  0.00  0.00     0.181 C 
ENDBRANCH  16  20
ENDBRANCH   2  14
TORSDOF 4
ENDMDL
MODEL 2
REMARK VINA RESULT:      -7.6      1.864      4.910
REMARK  4 active torsions:
REMARK  status: ('A' for Active; 'I' for Inactive)
REMARK    1  A    between atoms: C_8  and  C_1 
REMARK    2  A    between atoms: N_5  and  C_2 
REMARK       I    between atoms: C_7  and  N_5 
REMARK    3  A    between atoms: C_10  and  C_7 
REMARK    4  A    between atoms: O_17  and  C_16 
ROOT
ATOM      1  N   UNL d   1      50.777  33.822  53.107  0.00  0.00    -0.165 NA
ATOM      2  C   UNL d   1      51.544  33.948  52.857  0.00  0.00     0.282 C 
ATOM      3  O   UNL d   1      51.709  34.510  52.272  0.00  0.00    -0.265 OA
ENDROOT
BRANCH   1   4
ATOM      4  C   UNL d   1      50.156  34.254  52.779  0.00  0.00     0.297 A 
ATOM      5  O   UNL d   1      49.660  34.766  53.194  0.00  0.00    -0.253 OA
ATOM      6  C   UNL d   1      49.116  35.083  52.656  0.00  0.00     0.212 A 
ATOM      7  N   UNL d   1      49.280  34.765  51.919  0.00  0.00    -0.119 NA
ATOM      8  N   UNL d   1      49.922  34.254  51.995  0.00  0.00    -0.101 NA
BRANCH   6   9
ATOM      9  C   UNL d   1      48.515  35.625  52.840  0.00  0.00     0.072 A 
ATOM     10  S   UNL d   1      47.933  35.894  52.327  0.00  0.00    -0.083 SA
ATOM     11  C   UNL d   1      47.455  36.423  52.740  0.00  0.00     0.035 A 
ATOM     12  C   UNL d   1      47.745  36.482  53.515  0.00  0.00     0.008 A 
ATOM     13  C   UNL d   1      48.404  35.985  53.574  0.00  0.00     0.011 A 
ENDBRANCH   6   9
ENDBRANCH   1   4
BRANCH   2  14
ATOM     14  C   UNL d   1      52.167  33.513  53.188  0.00  0.00     0.060 A 
ATOM     15  C   UNL d   1      52.580  33.805  53.841  0.00  0.00     0.029 A 
ATOM     16  C   UNL d   1      53.195  33.372  54.164  0.00  0.00     0.094 A 
ATOM     17  C   UNL d   1      53.401  32.645  53.837  0.00  0.00     0.024 A 
ATOM     18  C   UNL d   1      52.990  32.349  53.183  0.00  0.00     0.002 A 
ATOM     19  C   UNL d   1      52.374  32.787  52.862  0.00  0.00     0.005 A 
BRANCH  16  20
ATOM     20  O   UNL d   1      53.621  33.663  54.831  0.00  0.00    -0.328 OA
ATOM     21  C   UNL d   1      54.290  33.275  55.094  0.00  0.00     0.181 C 
ENDBRANCH  16  20
ENDBRANCH   2  14
TORSDOF 4
ENDMDL
MODEL 3
REMARK VINA RESULT:      -7.2      1.954      5.023
REMARK  4 active torsions:
REMARK  status: ('A' for Active; 'I' for Inactive)
REMARK    1  A    between atoms: C_8  and  C_1 
REMARK    2  A    between atoms: N_5  and  C_2 
REMARK       I    between atoms: C_7  and  N_5 
REMARK    3  A    between atoms: C_10  and  C_7 
REMARK    4  A    between atoms: O_17  and  C_16 
ROOT
ATOM      1  N   UNL d   1      51.151  33.494  53.201  0.00  0.00    -0.165 NA
ATOM      2  C   UNL d   1      51.935  33.611  53.009  0.00  0.00     0.282 C 
ATOM      3  O   UNL d   1      52.171  34.289  52.596  0.00  0.00    -0.265 OA
ENDROOT
BRANCH   1   4
ATOM      4  C   UNL d   1      50.582  34.050  52.985  0.00  0.00     0.297 A 
ATOM      5  O   UNL d   1      50.049  33.970  52.360  0.00  0.00    -0.253 OA
ATOM      6  C   UNL d   1      49.579  34.652  52.338  0.00  0.00     0.212 A 
ATOM      7  N   UNL d   1      49.825  35.143  52.946  0.00  0.00    -0.119 NA
ATOM      8  N   UNL d   1      50.443  34.772  53.345  0.00  0.00    -0.101 NA
BRANCH   6   9
ATOM      9  C   UNL d   1      48.971  34.801  51.794  0.00  0.00     0.072 A 
ATOM     10  S   UNL d   1      48.295  35.245  51.935  0.00  0.00    -0.083 SA
ATOM     11  C   UNL d   1      47.845  35.249  51.244  0.00  0.00     0.035 A 
ATOM     12  C   UNL d   1      48.247  34.803  50.672  0.00  0.00     0.008 A 
ATOM     13  C   UNL d   1      48.947  34.526  51.016  0.00  0.00     0.011 A 
ENDBRANCH   6   9
ENDBRANCH   1   4
BRANCH   2  14
ATOM     14  C   UNL d   1      52.506  33.051  53.227  0.00  0.00     0.060 A 
ATOM     15  C   UNL d   1      52.475  32.283  52.924  0.00  0.00     0.029 A 
ATOM     16  C   UNL d   1      53.041  31.734  53.142  0.00  0.00     0.094 A 
ATOM     17  C   UNL d   1      53.641  31.947  53.662  0.00  0.00     0.024 A 
ATOM     18  C   UNL d   1      53.677  32.716  53.968  0.00  0.00     0.002 A 
ATOM     19  C   UNL d   1      53.107  33.263  53.747  0.00  0.00     0.005 A 
BRANCH  16  20
ATOM     20  O   UNL d   1      53.015  30.947  52.838  0.00  0.00    -0.328 OA
ATOM     21  C   UNL d   1      53.174  30.312  53.326  0.00  0.00     0.181 C 
ENDBRANCH  16  20
ENDBRANCH   2  14
TORSDOF 4
ENDMDL
MODEL 4
REMARK VINA RESULT:      -7.2      2.587      3.465
REMARK  4 active torsions:
REMARK  status: ('A' for Active; 'I' for Inactive)
REMARK    1  A    between atoms: C_8  and  C_1 
REMARK    2  A    between atoms: N_5  and  C_2 
REMARK       I    between atoms: C_7  and  N_5 
REMARK    3  A    between atoms: C_10  and  C_7 
REMARK    4  A    between atoms: O_17  and  C_16 
ROOT
ATOM      1  N   UNL d   1      53.107  32.195  53.137  0.00  0.00    -0.165 NA
ATOM      2  C   UNL d   1      52.430  32.636  53.250  0.00  0.00     0.282 C 
ATOM      3  O   UNL d   1      51.706  32.265  53.405  0.00  0.00    -0.265 OA
ENDROOT
BRANCH   1   4
ATOM      4  C   UNL d   1      53.079  31.371  53.176  0.00  0.00     0.297 A 
ATOM      5  O   UNL d   1      53.272  30.919  53.838  0.00  0.00    -0.253 OA
ATOM      6  C   UNL d   1      53.167  30.122  53.640  0.00  0.00     0.212 A 
ATOM      7  N   UNL d   1      52.912  30.091  52.861  0.00  0.00    -0.119 NA
ATOM      8  N   UNL d   1      52.858  30.862  52.575  0.00  0.00    -0.101 NA
BRANCH   6   9
ATOM      9  C   UNL d   1      53.299  29.477  54.145  0.00  0.00     0.072 A 
ATOM     10  S   UNL d   1      53.044  29.412  54.922  0.00  0.00    -0.083 SA
ATOM     11  C   UNL d   1      53.297  28.683  55.213  0.00  0.00     0.035 A 
ATOM     12  C   UNL d   1      53.712  28.295  54.609  0.00  0.00     0.008 A 
ATOM     13  C   UNL d   1      53.712  28.791  53.946  0.00  0.00     0.011 A 
ENDBRANCH   6   9
ENDBRANCH   1   4
BRANCH   2  14
ATOM     14  C   UNL d   1      52.460  33.463  53.210  0.00  0.00     0.060 A 
ATOM     15  C   UNL d   1      52.885  33.894  53.773  0.00  0.00     0.029 A 
ATOM     16  C   UNL d   1      52.911  34.710  53.730  0.00  0.00     0.094 A 
ATOM     17  C   UNL d   1      52.515  35.103  53.125  0.00  0.00     0.024 A 
ATOM     18  C   UNL d   1      52.088  34.676  52.559  0.00  0.00     0.002 A 
ATOM     19  C   UNL d   1      52.064  33.856  52.606  0.00  0.00     0.005 A 
BRANCH  16  20
ATOM     20  O   UNL d   1      53.343  35.157  54.301  0.00  0.00    -0.328 OA
ATOM     21  C   UNL d   1      52.992  35.792  54.678  0.00  0.00     0.181 C 
ENDBRANCH  16  20
ENDBRANCH   2  14
TORSDOF 4
ENDMDL
MODEL 5
REMARK VINA RESULT:      -7.0      3.033      4.788
REMARK  4 active torsions:
REMARK  status: ('A' for Active; 'I' for Inactive)
REMARK    1  A    between atoms: C_8  and  C_1 
REMARK    2  A    between atoms: N_5  and  C_2 
REMARK       I    between atoms: C_7  and  N_5 
REMARK    3  A    between atoms: C_10  and  C_7 
REMARK    4  A    between atoms: O_17  and  C_16 
ROOT
ATOM      1  N   UNL d   1      53.507  31.796  54.396  0.00  0.00    -0.165 NA
ATOM      2  C   UNL d   1      53.522  31.437  53.664  0.00  0.00     0.282 C 
ATOM      3  O   UNL d   1      53.758  31.860  52.992  0.00  0.00    -0.265 OA
ENDROOT
BRANCH   1   4
ATOM      4  C   UNL d   1      53.728  32.587  54.477  0.00  0.00     0.297 A 
ATOM      5  O   UNL d   1      53.221  33.233  54.406  0.00  0.00    -0.253 OA
ATOM      6  C   UNL d   1      53.668  33.920  54.527  0.00  0.00     0.212 A 
ATOM      7  N   UNL d   1      54.442  33.692  54.671  0.00  0.00    -0.119 NA
ATOM      8  N   UNL d   1      54.479  32.869  54.640  0.00  0.00    -0.101 NA
BRANCH   6   9
ATOM      9  C   UNL d   1      53.375  34.696  54.505  0.00  0.00     0.072 A 
ATOM     10  S   UNL d   1      53.349  35.221  55.135  0.00  0.00    -0.083 SA
ATOM     11  C   UNL d   1      53.017  35.926  54.866  0.00  0.00     0.035 A 
ATOM     12  C   UNL d   1      52.837  35.834  54.062  0.00  0.00     0.008 A 
ATOM     13  C   UNL d   1      53.060  35.069  53.840  0.00  0.00     0.011 A 
ENDBRANCH   6   9
ENDBRANCH   1   4
BRANCH   2  14
ATOM     14  C   UNL d   1      53.299  30.643  53.584  0.00  0.00     0.060 A 
ATOM     15  C   UNL d   1      53.577  30.076  54.116  0.00  0.00     0.029 A 
ATOM     16  C   UNL d   1      53.355  29.292  54.033  0.00  0.00     0.094 A 
ATOM     17  C   UNL d   1      52.854  29.070  53.419  0.00  0.00     0.024 A 
ATOM     18  C   UNL d   1      52.574  29.635  52.883  0.00  0.00     0.002 A 
ATOM     19  C   UNL d   1      52.800  30.420  52.970  0.00  0.00     0.005 A 
BRANCH  16  20
ATOM     20  O   UNL d   1      53.634  28.707  54.573  0.00  0.00    -0.328 OA
ATOM     21  C   UNL d   1      53.227  28.558  55.266  0.00  0.00     0.181 C 
ENDBRANCH  16  20
ENDBRANCH   2  14
TORSDOF 4
ENDMDL
