MODEL 1
REMARK VINA RESULT:      62.7      0.000      0.000
REMARK  9 active torsions:
REMARK  status: ('A' for Active; 'I' for Inactive)
REMARK    1  A    between atoms: N_3  and  C_1 
REMARK       I    between atoms: C_5  and  N_3 
REMARK    2  A    between atoms: C_9  and  N_3 
REMARK    3  A    between atoms: C_8  and  C_5 
REMARK    4  A    between atoms: C_16  and  C_9 
REMARK    5  A    between atoms: O_18  and  C_12 
REMARK    6  A    between atoms: N_17  and  C_16 
REMARK    7  A    between atoms: C_22  and  N_17 
REMARK    8  A    between atoms: C_23  and  N_17 
REMARK    9  A    between atoms: C_24  and  O_18 
ROOT
ATOM      1  N   UNL d   1      58.413  49.610  51.657  0.00  0.00    -0.250 N 
ATOM      2  C   UNL d   1      58.214  49.654  52.453  0.00  0.00     0.289 C 
ATOM      3  O   UNL d   1      58.791  49.705  53.020  0.00  0.00    -0.264 OA
ENDROOT
BRANCH   1   4
ATOM      4  C   UNL d   1      59.213  49.620  51.440  0.00  0.00     0.182 A 
ATOM      5  N   UNL d   1      59.866  49.605  51.976  0.00  0.00    -0.220 NA
ATOM      6  C   UNL d   1      60.583  49.622  51.514  0.00  0.00     0.112 A 
ATOM      7  C   UNL d   1      61.386  49.618  51.730  0.00  0.00     0.118 A 
ATOM      8  C   UNL d   1      60.363  49.646  50.704  0.00  0.00     0.052 A 
ATOM      9  C   UNL d   1      61.981  49.638  51.144  0.00  0.00     0.026 A 
ATOM     10  C   UNL d   1      61.766  49.663  50.332  0.00  0.00     0.003 A 
ATOM     11  C   UNL d   1      60.947  49.666  50.124  0.00  0.00     0.008 A 
ATOM     12  S   UNL d   1      59.516  49.645  50.648  0.00  0.00    -0.048 SA
BRANCH   7  13
ATOM     13  O   UNL d   1      61.603  49.593  52.546  0.00  0.00    -0.304 OA
BRANCH  13  14
ATOM     14  C   UNL d   1      62.407  49.708  52.771  0.00  0.00     0.123 C 
ATOM     15  C   UNL d   1      62.712  49.374  53.139  0.00  0.00     0.029 C 
ENDBRANCH  13  14
ENDBRANCH   7  13
ENDBRANCH   1   4
BRANCH   1  16
ATOM     16  C   UNL d   1      57.829  49.558  51.084  0.00  0.00     0.104 C 
BRANCH  16  17
ATOM     17  C   UNL d   1      57.676  48.833  50.720  0.00  0.00     0.100 C 
BRANCH  17  18
ATOM     18  N   UNL d   1      57.142  48.794  50.100  0.00  0.00    -0.301 N 
BRANCH  18  19
ATOM     19  C   UNL d   1      57.069  49.431  49.581  0.00  0.00     0.080 C 
ATOM     20  C   UNL d   1      56.379  49.528  49.149  0.00  0.00     0.021 C 
ENDBRANCH  18  19
BRANCH  18  21
ATOM     21  C   UNL d   1      56.682  48.126  49.997  0.00  0.00     0.080 C 
ATOM     22  C   UNL d   1      56.885  47.429  50.375  0.00  0.00     0.021 C 
ENDBRANCH  18  21
ENDBRANCH  17  18
ENDBRANCH  16  17
ENDBRANCH   1  16
BRANCH   2  23
ATOM     23  C   UNL d   1      57.420  49.644  52.665  0.00  0.00     0.156 A 
ATOM     24  O   UNL d   1      57.117  49.594  53.422  0.00  0.00    -0.300 OA
ATOM     25  C   UNL d   1      56.291  49.603  53.367  0.00  0.00     0.123 A 
ATOM     26  C   UNL d   1      56.097  49.658  52.584  0.00  0.00     0.029 A 
ATOM     27  C   UNL d   1      56.778  49.684  52.131  0.00  0.00     0.032 A 
ENDBRANCH   2  23
TORSDOF 9
ENDMDL
