MODEL 1
REMARK VINA RESULT:      42.2      0.000      0.000
REMARK  7 active torsions:
REMARK  status: ('A' for Active; 'I' for Inactive)
REMARK    1  A    between atoms: N_2  and  S_1 
REMARK    2  A    between atoms: C_3  and  S_1 
REMARK    3  A    between atoms: C_4  and  C_7 
REMARK       I    between atoms: N_5  and  C_4 
REMARK    4  A    between atoms: C_15  and  N_5 
REMARK    5  A    between atoms: C_6  and  C_11 
REMARK    6  A    between atoms: O_20  and  C_6 
REMARK    7  A    between atoms: C_28  and  O_20 
ROOT
ATOM      1  C   UNL d   1      46.405 -19.115  41.725  0.00  0.00     0.104 A 
ATOM      2  C   UNL d   1      46.291 -18.638  40.380  0.00  0.00     0.059 A 
ATOM      3  C   UNL d   1      46.254 -18.516  41.177  0.00  0.00     0.018 A 
ATOM      4  C   UNL d   1      46.609 -19.900  41.429  0.00  0.00     0.013 A 
ATOM      5  C   UNL d   1      46.495 -19.423  40.084  0.00  0.00     0.005 A 
ATOM      6  C   UNL d   1      46.644 -20.015  40.612  0.00  0.00     0.001 A 
ENDROOT
BRANCH   2   7
ATOM      7  C   UNL d   1      46.135 -18.021  39.859  0.00  0.00     0.279 C 
ATOM      8  N   UNL d   1      45.455 -18.021  39.404  0.00  0.00    -0.208 NA
ATOM      9  O   UNL d   1      46.641 -17.360  39.750  0.00  0.00    -0.265 OA
BRANCH   8  10
ATOM     10  C   UNL d   1      45.293 -17.394  38.872  0.00  0.00     0.085 A 
ATOM     11  C   UNL d   1      45.838 -16.755  38.793  0.00  0.00     0.019 A 
ATOM     12  C   UNL d   1      45.644 -16.120  38.235  0.00  0.00     0.007 A 
ATOM     13  C   UNL d   1      44.920 -16.151  37.784  0.00  0.00     0.064 A 
ATOM     14  C   UNL d   1      44.394 -16.782  37.869  0.00  0.00     0.007 A 
ATOM     15  C   UNL d   1      44.565 -17.414  38.411  0.00  0.00     0.019 A 
BRANCH  13  16
ATOM     16  C   UNL d   1      44.724 -15.564  37.256  0.00  0.00     0.300 C 
ATOM     17  O   UNL d   1      45.265 -15.166  36.818  0.00  0.00    -0.259 OA
BRANCH  16  18
ATOM     18  O   UNL d   1      43.960 -15.307  37.107  0.00  0.00    -0.271 OA
BRANCH  18  19
ATOM     19  C   UNL d   1      43.533 -15.635  36.496  0.00  0.00     0.126 C 
ATOM     20  C   UNL d   1      42.799 -15.364  36.338  0.00  0.00     0.029 C 
ENDBRANCH  18  19
ENDBRANCH  16  18
ENDBRANCH  13  16
ENDBRANCH   8  10
ENDBRANCH   2   7
BRANCH   1  21
ATOM     21  S   UNL d   1      46.363 -18.972  42.538  0.00  0.00     0.272 S 
ATOM     22  O   UNL d   1      46.423 -19.793  42.709  0.00  0.00    -0.200 OA
ATOM     23  O   UNL d   1      46.303 -18.166  42.391  0.00  0.00    -0.200 OA
BRANCH  21  24
ATOM     24  N   UNL d   1      46.321 -18.818  43.341  0.00  0.00    -0.225 N 
ATOM     25  C   UNL d   1      46.299 -19.433  43.866  0.00  0.00     0.118 A 
ATOM     26  C   UNL d   1      46.256 -19.294  44.672  0.00  0.00     0.142 A 
ATOM     27  O   UNL d   1      46.235 -18.534  44.955  0.00  0.00    -0.300 OA
ATOM     28  C   UNL d   1      46.258 -17.894  44.418  0.00  0.00     0.142 A 
ATOM     29  C   UNL d   1      46.300 -18.040  43.611  0.00  0.00     0.118 A 
ENDBRANCH  21  24
ENDBRANCH   1  21
TORSDOF 7
ENDMDL
