MODEL 1
REMARK VINA RESULT:       0.4      0.000      0.000
REMARK  6 active torsions:
REMARK  status: ('A' for Active; 'I' for Inactive)
REMARK    1  A    between atoms: C_7  and  C_2 
REMARK    2  A    between atoms: C_16  and  N_3 
REMARK    3  A    between atoms: O_17  and  C_9 
REMARK    4  A    between atoms: O_19  and  C_10 
REMARK    5  A    between atoms: O_18  and  C_11 
REMARK    6  A    between atoms: C_25  and  C_16 
ROOT
ATOM      1  N   UNL d   1     -41.128-123.029 -50.282  0.00  0.00    -0.206 NA
ATOM      2  C   UNL d   1     -41.715-122.718 -50.780  0.00  0.00     0.151 A 
ATOM      3  N   UNL d   1     -42.398-122.598 -50.324  0.00  0.00    -0.273 N 
ATOM      4  C   UNL d   1     -42.225-122.836 -49.554  0.00  0.00     0.185 A 
ATOM      5  C   UNL d   1     -41.445-123.101 -49.526  0.00  0.00     0.199 A 
ATOM      6  N   UNL d   1     -42.684-122.847 -48.859  0.00  0.00    -0.224 NA
ATOM      7  N   UNL d   1     -41.123-123.373 -48.819  0.00  0.00    -0.223 NA
ATOM      8  C   UNL d   1     -42.358-123.121 -48.152  0.00  0.00     0.101 A 
ATOM      9  C   UNL d   1     -41.575-123.384 -48.135  0.00  0.00     0.101 A 
ATOM     10  C   UNL d   1     -42.822-123.128 -47.465  0.00  0.00     0.021 A 
ATOM     11  C   UNL d   1     -41.255-123.655 -47.432  0.00  0.00     0.021 A 
ATOM     12  C   UNL d   1     -41.709-123.666 -46.745  0.00  0.00     0.002 A 
ATOM     13  C   UNL d   1     -42.492-123.402 -46.763  0.00  0.00     0.002 A 
ENDROOT
BRANCH   2  14
ATOM     14  C   UNL d   1     -41.635-122.556 -51.580  0.00  0.00     0.039 A 
ATOM     15  C   UNL d   1     -41.525-121.756 -51.836  0.00  0.00     0.029 A 
ATOM     16  C   UNL d   1     -41.442-121.575 -52.644  0.00  0.00     0.118 A 
ATOM     17  C   UNL d   1     -41.469-122.199 -53.199  0.00  0.00     0.138 A 
ATOM     18  C   UNL d   1     -41.579-122.999 -52.943  0.00  0.00     0.118 A 
ATOM     19  C   UNL d   1     -41.663-123.184 -52.130  0.00  0.00     0.029 A 
BRANCH  16  20
ATOM     20  O   UNL d   1     -41.335-120.792 -52.894  0.00  0.00    -0.326 OA
ATOM     21  C   UNL d   1     -41.140-120.041 -52.191  0.00  0.00     0.181 C 
ENDBRANCH  16  20
BRANCH  17  22
ATOM     22  O   UNL d   1     -41.390-122.044 -53.998  0.00  0.00    -0.324 OA
ATOM     23  C   UNL d   1     -42.232-122.082 -54.677  0.00  0.00     0.182 C 
ENDBRANCH  17  22
BRANCH  18  24
ATOM     24  O   UNL d   1     -41.607-123.627 -53.493  0.00  0.00    -0.326 OA
ATOM     25  C   UNL d   1     -42.452-123.729 -54.203  0.00  0.00     0.181 C 
ENDBRANCH  18  24
ENDBRANCH   2  14
BRANCH   3  26
ATOM     26  C   UNL d   1     -43.111-122.299 -50.592  0.00  0.00     0.083 C 
BRANCH  26  27
ATOM     27  C   UNL d   1     -43.818-122.553 -50.258  0.00  0.00     0.019 C 
ATOM     28  C   UNL d   1     -44.530-122.217 -50.496  0.00  0.00     0.002 C 
ENDBRANCH  26  27
ENDBRANCH   3  26
TORSDOF 6
ENDMDL
