MODEL 1
REMARK VINA RESULT:      55.4      0.000      0.000
REMARK  8 active torsions:
REMARK  status: ('A' for Active; 'I' for Inactive)
REMARK    1  A    between atoms: C_8  and  N_3 
REMARK    2  A    between atoms: S_7  and  C_5 
REMARK    3  A    between atoms: C_17  and  S_7 
REMARK    4  A    between atoms: C_20  and  C_8 
REMARK    5  A    between atoms: C_9  and  C_17 
REMARK       I    between atoms: N_12  and  C_9 
REMARK    6  A    between atoms: C_11  and  C_13 
REMARK    7  A    between atoms: C_13  and  N_12 
REMARK    8  A    between atoms: O_21  and  C_15 
ROOT
ATOM      1  N   UNL d   1      13.466  14.150  -3.697  0.00  0.00    -0.185 NA
ATOM      2  C   UNL d   1      13.420  13.620  -3.064  0.00  0.00     0.354 A 
ATOM      3  N   UNL d   1      13.277  12.818  -3.210  0.00  0.00    -0.258 N 
ATOM      4  C   UNL d   1      13.229  13.084  -4.603  0.00  0.00     0.040 A 
ATOM      5  C   UNL d   1      13.371  13.882  -4.466  0.00  0.00     0.117 A 
ATOM      6  C   UNL d   1      13.182  12.550  -3.979  0.00  0.00     0.070 A 
ATOM      7  O   UNL d   1      13.517  13.894  -2.279  0.00  0.00    -0.244 OA
ATOM      8  C   UNL d   1      13.112  12.648  -5.294  0.00  0.00     0.004 A 
ATOM      9  C   UNL d   1      13.038  11.795  -4.265  0.00  0.00     0.018 A 
ATOM     10  C   UNL d   1      12.994  11.861  -5.095  0.00  0.00     0.002 A 
ENDROOT
BRANCH   5  11
ATOM     11  S   UNL d   1      13.417  14.413  -5.100  0.00  0.00    -0.062 SA
BRANCH  11  12
ATOM     12  C   UNL d   1      13.365  15.223  -4.968  0.00  0.00     0.099 C 
BRANCH  12  13
ATOM     13  C   UNL d   1      13.774  15.746  -5.465  0.00  0.00     0.286 C 
ATOM     14  N   UNL d   1      13.591  16.541  -5.470  0.00  0.00    -0.206 NA
ATOM     15  O   UNL d   1      14.377  15.457  -5.964  0.00  0.00    -0.265 OA
BRANCH  14  16
ATOM     16  C   UNL d   1      13.999  17.063  -5.967  0.00  0.00     0.104 C 
BRANCH  16  17
ATOM     17  C   UNL d   1      13.764  17.846  -6.029  0.00  0.00     0.042 A 
ATOM     18  C   UNL d   1      14.274  18.456  -5.798  0.00  0.00     0.096 A 
ATOM     19  C   UNL d   1      14.036  19.243  -5.861  0.00  0.00     0.024 A 
ATOM     20  C   UNL d   1      13.292  19.430  -6.154  0.00  0.00     0.002 A 
ATOM     21  C   UNL d   1      12.773  18.827  -6.388  0.00  0.00     0.000 A 
ATOM     22  C   UNL d   1      13.007  18.029  -6.327  0.00  0.00     0.004 A 
BRANCH  18  23
ATOM     23  O   UNL d   1      15.029  18.276  -5.501  0.00  0.00    -0.328 OA
ATOM     24  C   UNL d   1      15.595  18.880  -5.446  0.00  0.00     0.181 C 
ENDBRANCH  18  23
ENDBRANCH  16  17
ENDBRANCH  14  16
ENDBRANCH  12  13
ENDBRANCH  11  12
ENDBRANCH   5  11
BRANCH   3  25
ATOM     25  C   UNL d   1      13.231  12.287  -2.576  0.00  0.00     0.085 C 
BRANCH  25  26
ATOM     26  C   UNL d   1      13.889  12.172  -2.087  0.00  0.00     0.021 A 
ATOM     27  C   UNL d   1      13.784  11.908  -1.318  0.00  0.00     0.022 A 
ATOM     28  C   UNL d   1      14.446  11.796  -0.837  0.00  0.00     0.099 A 
ATOM     29  N   UNL d   1      15.205  11.946  -1.123  0.00  0.00    -0.242 NA
ATOM     30  C   UNL d   1      15.301  12.208  -1.889  0.00  0.00     0.099 A 
ATOM     31  C   UNL d   1      14.637  12.326  -2.387  0.00  0.00     0.022 A 
ENDBRANCH  25  26
ENDBRANCH   3  25
TORSDOF 8
ENDMDL
