MODEL 1
REMARK VINA RESULT:      -3.2      0.000      0.000
REMARK  5 active torsions:
REMARK  status: ('A' for Active; 'I' for Inactive)
REMARK    1  A    between atoms: S_3  and  N_1 
REMARK    2  A    between atoms: C_7  and  C_4 
REMARK    3  A    between atoms: C_8  and  C_5 
REMARK    4  A    between atoms: O_21  and  C_13 
REMARK    5  A    between atoms: O_22  and  C_15 
ROOT
ATOM      1  N   UNL d   1      57.979  -0.196  29.959  0.00  0.00    -0.155 N 
ATOM      2  N   UNL d   1      57.452   0.039  30.533  0.00  0.00    -0.155 NA
ATOM      3  C   UNL d   1      57.397  -0.559  31.095  0.00  0.00     0.110 A 
ATOM      4  C   UNL d   1      58.252  -0.945  30.167  0.00  0.00     0.096 A 
ATOM      5  C   UNL d   1      57.892  -1.163  30.865  0.00  0.00     0.041 A 
ENDROOT
BRANCH   4   6
ATOM      6  C   UNL d   1      58.794  -1.393  29.742  0.00  0.00     0.021 A 
ATOM      7  C   UNL d   1      58.541  -2.055  29.320  0.00  0.00     0.028 A 
ATOM      8  C   UNL d   1      59.087  -2.506  28.892  0.00  0.00     0.116 A 
ATOM      9  C   UNL d   1      59.882  -2.294  28.888  0.00  0.00     0.116 A 
ATOM     10  C   UNL d   1      60.136  -1.632  29.311  0.00  0.00     0.026 A 
ATOM     11  C   UNL d   1      59.594  -1.184  29.735  0.00  0.00     0.004 A 
BRANCH   8  12
ATOM     12  O   UNL d   1      58.833  -3.168  28.469  0.00  0.00    -0.326 OA
ATOM     13  C   UNL d   1      58.097  -3.500  28.627  0.00  0.00     0.181 C 
ENDBRANCH   8  12
BRANCH   9  14
ATOM     14  O   UNL d   1      60.428  -2.745  28.460  0.00  0.00    -0.326 OA
ATOM     15  C   UNL d   1      61.026  -3.155  28.856  0.00  0.00     0.181 C 
ENDBRANCH   9  14
ENDBRANCH   4   6
BRANCH   1  16
ATOM     16  S   UNL d   1      58.195   0.233  29.300  0.00  0.00     0.266 S 
ATOM     17  O   UNL d   1      58.431   0.682  28.629  0.00  0.00    -0.203 OA
ATOM     18  O   UNL d   1      57.584  -0.111  28.872  0.00  0.00    -0.203 OA
ATOM     19  C   UNL d   1      58.802   0.576  29.722  0.00  0.00     0.165 C 
ENDBRANCH   1  16
BRANCH   3  20
ATOM     20  C   UNL d   1      56.918  -0.540  31.774  0.00  0.00     0.049 A 
ATOM     21  S   UNL d   1      56.811   0.112  32.263  0.00  0.00    -0.085 SA
ATOM     22  C   UNL d   1      56.286  -0.096  32.887  0.00  0.00     0.035 A 
ATOM     23  C   UNL d   1      56.080  -0.887  32.765  0.00  0.00     0.007 A 
ATOM     24  C   UNL d   1      56.475  -1.151  32.076  0.00  0.00     0.009 A 
ENDBRANCH   3  20
TORSDOF 5
ENDMDL
