MODEL 1
REMARK VINA RESULT:      -9.1      0.000      0.000
REMARK  2 active torsions:
REMARK  status: ('A' for Active; 'I' for Inactive)
REMARK    1  A    between atoms: C_11  and  C_2 
REMARK    2  A    between atoms: C_9  and  C_6 
ROOT
ATOM      1  C   UNL d   1     -48.145  12.209  23.117  0.00  0.00     0.045 A 
ATOM      2  C   UNL d   1     -48.950  12.114  23.017  0.00  0.00     0.127 A 
ATOM      3  C   UNL d   1     -47.631  12.815  22.895  0.00  0.00     0.010 A 
ATOM      4  O   UNL d   1     -49.172  11.401  23.350  0.00  0.00    -0.211 OA
ATOM      5  N   UNL d   1     -48.496  11.043  23.664  0.00  0.00    -0.126 NA
ATOM      6  C   UNL d   1     -46.828  12.759  23.074  0.00  0.00     0.065 A 
ATOM      7  C   UNL d   1     -47.856  11.547  23.519  0.00  0.00     0.110 A 
ATOM      8  C   UNL d   1     -46.538  12.096  23.476  0.00  0.00     0.008 A 
ATOM      9  C   UNL d   1     -47.052  11.491  23.698  0.00  0.00     0.022 A 
ENDROOT
BRANCH   2  10
ATOM     10  C   UNL d   1     -49.465  12.647  22.641  0.00  0.00     0.025 A 
ATOM     11  C   UNL d   1     -49.616  12.561  21.833  0.00  0.00     0.002 A 
ATOM     12  C   UNL d   1     -50.128  13.088  21.451  0.00  0.00     0.000 A 
ATOM     13  C   UNL d   1     -50.488  13.698  21.881  0.00  0.00     0.000 A 
ATOM     14  C   UNL d   1     -50.334  13.779  22.691  0.00  0.00     0.000 A 
ATOM     15  C   UNL d   1     -49.824  13.254  23.069  0.00  0.00     0.002 A 
ENDBRANCH   2  10
BRANCH   6  16
ATOM     16  C   UNL d   1     -46.314  13.364  22.852  0.00  0.00     0.211 C 
ATOM     17  O   UNL d   1     -46.216  14.027  23.336  0.00  0.00    -0.644 OA
ATOM     18  O   UNL d   1     -45.897  13.302  22.138  0.00  0.00    -0.644 OA
ENDBRANCH   6  16
TORSDOF 2
ENDMDL
MODEL 2
REMARK VINA RESULT:      -8.6      1.659      2.256
REMARK  2 active torsions:
REMARK  status: ('A' for Active; 'I' for Inactive)
REMARK    1  A    between atoms: C_11  and  C_2 
REMARK    2  A    between atoms: C_9  and  C_6 
ROOT
ATOM      1  C   UNL d   1     -48.143  13.952  22.720  0.00  0.00     0.045 A 
ATOM      2  C   UNL d   1     -48.957  13.884  22.688  0.00  0.00     0.127 A 
ATOM      3  C   UNL d   1     -47.551  13.396  22.861  0.00  0.00     0.010 A 
ATOM      4  O   UNL d   1     -49.273  14.621  22.527  0.00  0.00    -0.211 OA
ATOM      5  N   UNL d   1     -48.649  15.160  22.458  0.00  0.00    -0.126 NA
ATOM      6  C   UNL d   1     -46.759  13.629  22.860  0.00  0.00     0.065 A 
ATOM      7  C   UNL d   1     -47.945  14.742  22.578  0.00  0.00     0.110 A 
ATOM      8  C   UNL d   1     -46.561  14.419  22.719  0.00  0.00     0.008 A 
ATOM      9  C   UNL d   1     -47.153  14.975  22.578  0.00  0.00     0.022 A 
ENDROOT
BRANCH   2  10
ATOM     10  C   UNL d   1     -49.397  13.189  22.798  0.00  0.00     0.025 A 
ATOM     11  C   UNL d   1     -49.690  13.010  23.550  0.00  0.00     0.002 A 
ATOM     12  C   UNL d   1     -50.130  12.319  23.668  0.00  0.00     0.000 A 
ATOM     13  C   UNL d   1     -50.275  11.809  23.031  0.00  0.00     0.000 A 
ATOM     14  C   UNL d   1     -49.980  11.993  22.279  0.00  0.00     0.000 A 
ATOM     15  C   UNL d   1     -49.542  12.681  22.164  0.00  0.00     0.002 A 
ENDBRANCH   2  10
BRANCH   6  16
ATOM     16  C   UNL d   1     -46.167  13.073  23.001  0.00  0.00     0.211 C 
ATOM     17  O   UNL d   1     -45.557  12.965  22.454  0.00  0.00    -0.644 OA
ATOM     18  O   UNL d   1     -46.188  12.623  23.698  0.00  0.00    -0.644 OA
ENDBRANCH   6  16
TORSDOF 2
ENDMDL
MODEL 3
REMARK VINA RESULT:      -8.1      1.768      3.480
REMARK  2 active torsions:
REMARK  status: ('A' for Active; 'I' for Inactive)
REMARK    1  A    between atoms: C_11  and  C_2 
REMARK    2  A    between atoms: C_9  and  C_6 
ROOT
ATOM      1  C   UNL d   1     -48.985  13.480  22.046  0.00  0.00     0.045 A 
ATOM      2  C   UNL d   1     -48.343  12.980  21.974  0.00  0.00     0.127 A 
ATOM      3  C   UNL d   1     -49.130  14.118  22.548  0.00  0.00     0.010 A 
ATOM      4  O   UNL d   1     -48.501  12.440  21.379  0.00  0.00    -0.211 OA
ATOM      5  N   UNL d   1     -49.252  12.604  21.075  0.00  0.00    -0.126 NA
ATOM      6  C   UNL d   1     -49.843  14.529  22.496  0.00  0.00     0.065 A 
ATOM      7  C   UNL d   1     -49.554  13.252  21.491  0.00  0.00     0.110 A 
ATOM      8  C   UNL d   1     -50.412  14.302  21.941  0.00  0.00     0.008 A 
ATOM      9  C   UNL d   1     -50.267  13.663  21.439  0.00  0.00     0.022 A 
ENDROOT
BRANCH   2  10
ATOM     10  C   UNL d   1     -47.645  13.007  22.422  0.00  0.00     0.025 A 
ATOM     11  C   UNL d   1     -47.582  12.539  23.101  0.00  0.00     0.002 A 
ATOM     12  C   UNL d   1     -46.889  12.560  23.553  0.00  0.00     0.000 A 
ATOM     13  C   UNL d   1     -46.261  13.050  23.323  0.00  0.00     0.000 A 
ATOM     14  C   UNL d   1     -46.329  13.516  22.642  0.00  0.00     0.000 A 
ATOM     15  C   UNL d   1     -47.020  13.494  22.193  0.00  0.00     0.002 A 
ENDBRANCH   2  10
BRANCH   6  16
ATOM     16  C   UNL d   1     -49.988  15.168  22.998  0.00  0.00     0.211 C 
ATOM     17  O   UNL d   1     -49.708  15.922  22.805  0.00  0.00    -0.644 OA
ATOM     18  O   UNL d   1     -50.416  15.046  23.698  0.00  0.00    -0.644 OA
ENDBRANCH   6  16
TORSDOF 2
ENDMDL
MODEL 4
REMARK VINA RESULT:      -7.7      1.635      3.721
REMARK  2 active torsions:
REMARK  status: ('A' for Active; 'I' for Inactive)
REMARK    1  A    between atoms: C_11  and  C_2 
REMARK    2  A    between atoms: C_9  and  C_6 
ROOT
ATOM      1  C   UNL d   1     -48.617  14.068  22.489  0.00  0.00     0.045 A 
ATOM      2  C   UNL d   1     -47.848  14.256  22.691  0.00  0.00     0.127 A 
ATOM      3  C   UNL d   1     -48.982  13.345  22.330  0.00  0.00     0.010 A 
ATOM      4  O   UNL d   1     -47.796  15.067  22.785  0.00  0.00    -0.211 OA
ATOM      5  N   UNL d   1     -48.542  15.392  22.639  0.00  0.00    -0.126 NA
ATOM      6  C   UNL d   1     -49.783  13.323  22.137  0.00  0.00     0.065 A 
ATOM      7  C   UNL d   1     -49.054  14.769  22.455  0.00  0.00     0.110 A 
ATOM      8  C   UNL d   1     -50.221  14.024  22.103  0.00  0.00     0.008 A 
ATOM      9  C   UNL d   1     -49.856  14.747  22.262  0.00  0.00     0.022 A 
ENDROOT
BRANCH   2  10
ATOM     10  C   UNL d   1     -47.219  13.723  22.788  0.00  0.00     0.025 A 
ATOM     11  C   UNL d   1     -46.647  13.661  22.195  0.00  0.00     0.002 A 
ATOM     12  C   UNL d   1     -46.017  13.131  22.283  0.00  0.00     0.000 A 
ATOM     13  C   UNL d   1     -45.963  12.665  22.966  0.00  0.00     0.000 A 
ATOM     14  C   UNL d   1     -46.540  12.730  23.557  0.00  0.00     0.000 A 
ATOM     15  C   UNL d   1     -47.166  13.258  23.467  0.00  0.00     0.002 A 
ENDBRANCH   2  10
BRANCH   6  16
ATOM     16  C   UNL d   1     -50.148  12.601  21.978  0.00  0.00     0.211 C 
ATOM     17  O   UNL d   1     -50.495  12.164  22.589  0.00  0.00    -0.644 OA
ATOM     18  O   UNL d   1     -50.164  12.316  21.199  0.00  0.00    -0.644 OA
ENDBRANCH   6  16
TORSDOF 2
ENDMDL
MODEL 5
REMARK VINA RESULT:      -6.4      8.809     10.387
REMARK  2 active torsions:
REMARK  status: ('A' for Active; 'I' for Inactive)
REMARK    1  A    between atoms: C_11  and  C_2 
REMARK    2  A    between atoms: C_9  and  C_6 
ROOT
ATOM      1  C   UNL d   1     -39.772  14.240  18.719  0.00  0.00     0.045 A 
ATOM      2  C   UNL d   1     -39.833  13.892  17.983  0.00  0.00     0.127 A 
ATOM      3  C   UNL d   1     -39.122  14.523  19.141  0.00  0.00     0.010 A 
ATOM      4  O   UNL d   1     -40.620  13.720  17.841  0.00  0.00    -0.211 OA
ATOM      5  N   UNL d   1     -41.059  13.965  18.497  0.00  0.00    -0.126 NA
ATOM      6  C   UNL d   1     -39.230  14.854  19.889  0.00  0.00     0.065 A 
ATOM      7  C   UNL d   1     -40.531  14.290  19.045  0.00  0.00     0.110 A 
ATOM      8  C   UNL d   1     -39.988  14.903  20.214  0.00  0.00     0.008 A 
ATOM      9  C   UNL d   1     -40.638  14.621  19.792  0.00  0.00     0.022 A 
ENDROOT
BRANCH   2  10
ATOM     10  C   UNL d   1     -39.207  13.733  17.460  0.00  0.00     0.025 A 
ATOM     11  C   UNL d   1     -39.025  14.282  16.869  0.00  0.00     0.002 A 
ATOM     12  C   UNL d   1     -38.404  14.132  16.344  0.00  0.00     0.000 A 
ATOM     13  C   UNL d   1     -37.966  13.431  16.413  0.00  0.00     0.000 A 
ATOM     14  C   UNL d   1     -38.152  12.885  17.007  0.00  0.00     0.000 A 
ATOM     15  C   UNL d   1     -38.772  13.036  17.528  0.00  0.00     0.002 A 
ENDBRANCH   2  10
BRANCH   6  16
ATOM     16  C   UNL d   1     -38.580  15.136  20.311  0.00  0.00     0.211 C 
ATOM     17  O   UNL d   1     -38.321  15.915  20.208  0.00  0.00    -0.644 OA
ATOM     18  O   UNL d   1     -38.188  14.632  20.840  0.00  0.00    -0.644 OA
ENDBRANCH   6  16
TORSDOF 2
ENDMDL
MODEL 6
REMARK VINA RESULT:      -6.3      8.569      9.915
REMARK  2 active torsions:
REMARK  status: ('A' for Active; 'I' for Inactive)
REMARK    1  A    between atoms: C_11  and  C_2 
REMARK    2  A    between atoms: C_9  and  C_6 
ROOT
ATOM      1  C   UNL d   1     -40.143  14.924  18.343  0.00  0.00     0.045 A 
ATOM      2  C   UNL d   1     -40.479  15.353  18.952  0.00  0.00     0.127 A 
ATOM      3  C   UNL d   1     -39.612  14.293  18.344  0.00  0.00     0.010 A 
ATOM      4  O   UNL d   1     -40.971  15.921  18.629  0.00  0.00    -0.211 OA
ATOM      5  N   UNL d   1     -40.943  15.848  17.806  0.00  0.00    -0.126 NA
ATOM      6  C   UNL d   1     -39.365  13.963  17.629  0.00  0.00     0.065 A 
ATOM      7  C   UNL d   1     -40.427  15.226  17.628  0.00  0.00     0.110 A 
ATOM      8  C   UNL d   1     -39.649  14.265  16.913  0.00  0.00     0.008 A 
ATOM      9  C   UNL d   1     -40.180  14.896  16.913  0.00  0.00     0.022 A 
ENDROOT
BRANCH   2  10
ATOM     10  C   UNL d   1     -40.349  15.239  19.765  0.00  0.00     0.025 A 
ATOM     11  C   UNL d   1     -39.770  15.689  20.148  0.00  0.00     0.002 A 
ATOM     12  C   UNL d   1     -39.635  15.581  20.958  0.00  0.00     0.000 A 
ATOM     13  C   UNL d   1     -40.079  15.023  21.380  0.00  0.00     0.000 A 
ATOM     14  C   UNL d   1     -40.657  14.576  20.991  0.00  0.00     0.000 A 
ATOM     15  C   UNL d   1     -40.791  14.684  20.185  0.00  0.00     0.002 A 
ENDBRANCH   2  10
BRANCH   6  16
ATOM     16  C   UNL d   1     -38.834  13.332  17.629  0.00  0.00     0.211 C 
ATOM     17  O   UNL d   1     -39.109  12.555  17.566  0.00  0.00    -0.644 OA
ATOM     18  O   UNL d   1     -38.021  13.485  17.693  0.00  0.00    -0.644 OA
ENDBRANCH   6  16
TORSDOF 2
ENDMDL
MODEL 7
REMARK VINA RESULT:      -6.2      1.758      3.456
REMARK  2 active torsions:
REMARK  status: ('A' for Active; 'I' for Inactive)
REMARK    1  A    between atoms: C_11  and  C_2 
REMARK    2  A    between atoms: C_9  and  C_6 
ROOT
ATOM      1  C   UNL d   1     -47.306  13.660  22.901  0.00  0.00     0.045 A 
ATOM      2  C   UNL d   1     -46.771  13.177  23.285  0.00  0.00     0.127 A 
ATOM      3  C   UNL d   1     -48.026  13.499  22.533  0.00  0.00     0.010 A 
ATOM      4  O   UNL d   1     -46.146  13.637  23.545  0.00  0.00    -0.211 OA
ATOM      5  N   UNL d   1     -46.291  14.419  23.322  0.00  0.00    -0.126 NA
ATOM      6  C   UNL d   1     -48.456  14.111  22.184  0.00  0.00     0.065 A 
ATOM      7  C   UNL d   1     -47.015  14.434  22.920  0.00  0.00     0.110 A 
ATOM      8  C   UNL d   1     -48.165  14.885  22.203  0.00  0.00     0.008 A 
ATOM      9  C   UNL d   1     -47.444  15.046  22.571  0.00  0.00     0.022 A 
ENDROOT
BRANCH   2  10
ATOM     10  C   UNL d   1     -46.840  12.357  23.396  0.00  0.00     0.025 A 
ATOM     11  C   UNL d   1     -47.578  12.036  23.585  0.00  0.00     0.002 A 
ATOM     12  C   UNL d   1     -47.655  11.219  23.698  0.00  0.00     0.000 A 
ATOM     13  C   UNL d   1     -46.992  10.728  23.621  0.00  0.00     0.000 A 
ATOM     14  C   UNL d   1     -46.255  11.055  23.432  0.00  0.00     0.000 A 
ATOM     15  C   UNL d   1     -46.180  11.868  23.320  0.00  0.00     0.002 A 
ENDBRANCH   2  10
BRANCH   6  16
ATOM     16  C   UNL d   1     -49.176  13.949  21.816  0.00  0.00     0.211 C 
ATOM     17  O   UNL d   1     -49.194  13.578  21.078  0.00  0.00    -0.644 OA
ATOM     18  O   UNL d   1     -49.883  14.164  22.194  0.00  0.00    -0.644 OA
ENDBRANCH   6  16
TORSDOF 2
ENDMDL
