MODEL 1
REMARK VINA RESULT:      38.1      0.000      0.000
REMARK  4 active torsions:
REMARK  status: ('A' for Active; 'I' for Inactive)
REMARK       I    between atoms: N_2  and  C_1 
REMARK    1  A    between atoms: C_4  and  C_1 
REMARK    2  A    between atoms: C_14  and  N_3 
REMARK    3  A    between atoms: C_5  and  C_6 
REMARK    4  A    between atoms: C_17  and  C_14 
ROOT
ATOM      1  C   UNL d   1      14.912  13.453  -0.671  0.00  0.00     0.265 C 
ATOM      2  N   UNL d   1      14.498  13.057  -1.254  0.00  0.00    -0.269 N 
ATOM      3  N   UNL d   1      13.667  12.253  -2.422  0.00  0.00    -0.300 N 
ATOM      4  O   UNL d   1      15.212  13.035  -0.030  0.00  0.00    -0.267 OA
ATOM      5  C   UNL d   1      14.194  13.463  -1.897  0.00  0.00     0.102 A 
ATOM      6  C   UNL d   1      14.384  12.233  -1.194  0.00  0.00     0.102 A 
ATOM      7  C   UNL d   1      13.969  11.837  -1.778  0.00  0.00     0.100 A 
ATOM      8  C   UNL d   1      13.778  13.055  -2.480  0.00  0.00     0.100 A 
ENDROOT
BRANCH   1   9
ATOM      9  C   UNL d   1      15.026  14.277  -0.731  0.00  0.00     0.057 A 
ATOM     10  C   UNL d   1      15.234  14.707  -0.072  0.00  0.00     0.004 A 
ATOM     11  C   UNL d   1      15.348  15.531  -0.132  0.00  0.00    -0.004 A 
ATOM     12  C   UNL d   1      15.252  15.903  -0.850  0.00  0.00    -0.023 A 
ATOM     13  C   UNL d   1      15.042  15.472  -1.519  0.00  0.00    -0.004 A 
ATOM     14  C   UNL d   1      14.928  14.648  -1.459  0.00  0.00     0.004 A 
BRANCH  12  15
ATOM     15  C   UNL d   1      15.365  16.715  -0.909  0.00  0.00     0.019 C 
ATOM     16  C   UNL d   1      15.707  16.722  -0.160  0.00  0.00     0.004 C 
ATOM     17  C   UNL d   1      15.478  17.532  -0.969  0.00  0.00     0.004 C 
ATOM     18  C   UNL d   1      15.018  16.708  -1.668  0.00  0.00     0.004 C 
ENDBRANCH  12  15
ENDBRANCH   1   9
BRANCH   3  19
ATOM     19  C   UNL d   1      13.250  11.862  -3.011  0.00  0.00     0.080 C 
BRANCH  19  20
ATOM     20  C   UNL d   1      13.273  12.130  -3.786  0.00  0.00     0.018 A 
ATOM     21  C   UNL d   1      12.770  12.754  -4.043  0.00  0.00     0.002 A 
ATOM     22  C   UNL d   1      12.805  13.012  -4.823  0.00  0.00     0.000 A 
ATOM     23  C   UNL d   1      13.337  12.657  -5.361  0.00  0.00     0.000 A 
ATOM     24  C   UNL d   1      13.832  12.041  -5.103  0.00  0.00     0.000 A 
ATOM     25  C   UNL d   1      13.800  11.779  -4.318  0.00  0.00     0.002 A 
ENDBRANCH  19  20
ENDBRANCH   3  19
TORSDOF 4
ENDMDL
