MODEL 1
REMARK VINA RESULT:      79.5      0.000      0.000
REMARK  5 active torsions:
REMARK  status: ('A' for Active; 'I' for Inactive)
REMARK    1  A    between atoms: N_2  and  C_14 
REMARK    2  A    between atoms: C_17  and  N_4 
REMARK    3  A    between atoms: C_15  and  C_9 
REMARK    4  A    between atoms: C_14  and  O_16 
REMARK    5  A    between atoms: O_16  and  C_15 
ROOT
ATOM      1  C   UNL d   1      59.093  49.426  50.863  0.00  0.00     0.114 A 
ATOM      2  C   UNL d   1      59.427  49.447  51.617  0.00  0.00     0.044 A 
ATOM      3  N   UNL d   1      58.291  49.587  50.941  0.00  0.00    -0.224 N 
ATOM      4  N   UNL d   1      58.128  49.707  51.734  0.00  0.00    -0.165 NA
ATOM      5  S   UNL d   1      59.682  49.255  50.334  0.00  0.00    -0.062 SA
ATOM      6  C   UNL d   1      60.389  49.167  50.744  0.00  0.00     0.094 A 
ATOM      7  C   UNL d   1      60.220  49.289  51.546  0.00  0.00     0.015 A 
ATOM      8  C   UNL d   1      58.821  49.623  52.156  0.00  0.00     0.103 A 
ATOM      9  C   UNL d   1      58.911  49.697  52.967  0.00  0.00     0.022 C 
ENDROOT
BRANCH   6  10
ATOM     10  C   UNL d   1      61.123  48.991  50.421  0.00  0.00     0.307 C 
ATOM     11  O   UNL d   1      61.722  49.563  50.422  0.00  0.00    -0.258 OA
BRANCH  10  12
ATOM     12  O   UNL d   1      61.266  48.245  50.094  0.00  0.00    -0.252 OA
BRANCH  12  13
ATOM     13  C   UNL d   1      61.166  47.566  50.557  0.00  0.00     0.216 C 
BRANCH  13  14
ATOM     14  N   UNL d   1      61.339  46.822  50.239  0.00  0.00    -0.218 N 
ATOM     15  C   UNL d   1      61.127  46.100  50.565  0.00  0.00     0.269 A 
ATOM     16  C   UNL d   1      61.409  45.499  50.070  0.00  0.00     0.061 A 
ATOM     17  O   UNL d   1      60.704  45.985  51.269  0.00  0.00    -0.267 OA
ATOM     18  C   UNL d   1      61.366  44.679  50.110  0.00  0.00     0.005 A 
ATOM     19  C   UNL d   1      61.797  45.860  49.435  0.00  0.00     0.061 A 
ATOM     20  C   UNL d   1      61.705  44.218  49.524  0.00  0.00     0.000 A 
ATOM     21  C   UNL d   1      62.093  44.579  48.889  0.00  0.00     0.000 A 
ATOM     22  C   UNL d   1      62.141  45.400  48.840  0.00  0.00     0.005 A 
ATOM     23  C   UNL d   1      61.756  46.685  49.536  0.00  0.00     0.269 A 
ATOM     24  O   UNL d   1      62.069  47.255  49.034  0.00  0.00    -0.267 OA
ENDBRANCH  13  14
ENDBRANCH  12  13
ENDBRANCH  10  12
ENDBRANCH   6  10
BRANCH   3  25
ATOM     25  C   UNL d   1      57.744  49.621  50.324  0.00  0.00     0.083 A 
ATOM     26  C   UNL d   1      58.010  49.630  49.547  0.00  0.00     0.019 A 
ATOM     27  C   UNL d   1      57.463  49.664  48.931  0.00  0.00     0.002 A 
ATOM     28  C   UNL d   1      56.651  49.690  49.091  0.00  0.00     0.000 A 
ATOM     29  C   UNL d   1      56.389  49.681  49.881  0.00  0.00     0.002 A 
ATOM     30  C   UNL d   1      56.931  49.647  50.497  0.00  0.00     0.019 A 
ENDBRANCH   3  25
TORSDOF 5
ENDMDL
