MODEL 1
REMARK VINA RESULT:      19.9      0.000      0.000
REMARK  5 active torsions:
REMARK  status: ('A' for Active; 'I' for Inactive)
REMARK    1  A    between atoms: N_7  and  C_1 
REMARK    2  A    between atoms: C_6  and  N_2 
REMARK    3  A    between atoms: C_11  and  C_6 
REMARK    4  A    between atoms: C_12  and  N_7 
REMARK    5  A    between atoms: C_13  and  C_12 
ROOT
ATOM      1  C   UNL d   1      23.211  12.552  -2.016  0.00  0.00     0.735 A 
ATOM      2  N   UNL d   1      23.930  12.149  -2.097  0.00  0.00    -0.138 N 
ATOM      3  N   UNL d   1      22.940  12.765  -2.771  0.00  0.00    -0.059 NA
ATOM      4  C   UNL d   1      24.108  12.110  -2.903  0.00  0.00     0.100 A 
ATOM      5  C   UNL d   1      23.493  12.492  -3.316  0.00  0.00     0.116 A 
ATOM      6  C   UNL d   1      24.741  11.781  -3.318  0.00  0.00     0.020 A 
ATOM      7  C   UNL d   1      23.526  12.537  -4.142  0.00  0.00     0.021 A 
ATOM      8  C   UNL d   1      24.767  11.829  -4.138  0.00  0.00     0.002 A 
ATOM      9  C   UNL d   1      24.158  12.209  -4.555  0.00  0.00     0.002 A 
ENDROOT
BRANCH   1  10
ATOM     10  N   UNL d   1      22.825  12.717  -1.304  0.00  0.00    -0.056 NA
BRANCH  10  11
ATOM     11  C   UNL d   1      22.223  13.278  -1.274  0.00  0.00     0.163 C 
BRANCH  11  12
ATOM     12  C   UNL d   1      21.549  13.151  -0.821  0.00  0.00     0.255 C 
ATOM     13  O   UNL d   1      21.612  12.996  -0.015  0.00  0.00    -0.281 OA
ENDBRANCH  11  12
ENDBRANCH  10  11
ENDBRANCH   1  10
BRANCH   2  14
ATOM     14  C   UNL d   1      24.385  11.842  -1.483  0.00  0.00     0.098 C 
BRANCH  14  15
ATOM     15  C   UNL d   1      24.640  12.340  -0.869  0.00  0.00     0.018 C 
ATOM     16  C   UNL d   1      24.768  13.138  -1.009  0.00  0.00     0.002 C 
ATOM     17  C   UNL d   1      24.766  12.027  -0.114  0.00  0.00     0.002 C 
ENDBRANCH  14  15
ENDBRANCH   2  14
TORSDOF 5
ENDMDL
MODEL 2
REMARK VINA RESULT:      20.3      9.181     10.227
REMARK  5 active torsions:
REMARK  status: ('A' for Active; 'I' for Inactive)
REMARK    1  A    between atoms: N_7  and  C_1 
REMARK    2  A    between atoms: C_6  and  N_2 
REMARK    3  A    between atoms: C_11  and  C_6 
REMARK    4  A    between atoms: C_12  and  N_7 
REMARK    5  A    between atoms: C_13  and  C_12 
ROOT
ATOM      1  C   UNL d   1      13.528  12.455  -2.967  0.00  0.00     0.735 A 
ATOM      2  N   UNL d   1      14.122  12.984  -2.733  0.00  0.00    -0.138 N 
ATOM      3  N   UNL d   1      13.397  11.916  -2.351  0.00  0.00    -0.059 NA
ATOM      4  C   UNL d   1      14.361  12.774  -1.970  0.00  0.00     0.100 A 
ATOM      5  C   UNL d   1      13.910  12.112  -1.738  0.00  0.00     0.116 A 
ATOM      6  C   UNL d   1      14.924  13.090  -1.457  0.00  0.00     0.020 A 
ATOM      7  C   UNL d   1      14.034  11.780  -0.990  0.00  0.00     0.021 A 
ATOM      8  C   UNL d   1      15.042  12.755  -0.716  0.00  0.00     0.002 A 
ATOM      9  C   UNL d   1      14.596  12.096  -0.478  0.00  0.00     0.002 A 
ENDROOT
BRANCH   1  10
ATOM     10  N   UNL d   1      13.131  12.462  -3.691  0.00  0.00    -0.056 NA
BRANCH  10  11
ATOM     11  C   UNL d   1      13.093  11.782  -4.154  0.00  0.00     0.163 C 
BRANCH  11  12
ATOM     12  C   UNL d   1      12.935  11.827  -4.960  0.00  0.00     0.255 C 
ATOM     13  O   UNL d   1      13.550  11.790  -5.507  0.00  0.00    -0.281 OA
ENDBRANCH  11  12
ENDBRANCH  10  11
ENDBRANCH   1  10
BRANCH   2  14
ATOM     14  C   UNL d   1      14.420  13.607  -3.182  0.00  0.00     0.098 C 
BRANCH  14  15
ATOM     15  C   UNL d   1      13.919  14.230  -3.407  0.00  0.00     0.018 C 
ATOM     16  C   UNL d   1      13.832  14.428  -4.197  0.00  0.00     0.002 C 
ATOM     17  C   UNL d   1      13.507  14.653  -2.827  0.00  0.00     0.002 C 
ENDBRANCH  14  15
ENDBRANCH   2  14
TORSDOF 5
ENDMDL
MODEL 3
REMARK VINA RESULT:      21.5      9.522     10.245
REMARK  5 active torsions:
REMARK  status: ('A' for Active; 'I' for Inactive)
REMARK    1  A    between atoms: N_7  and  C_1 
REMARK    2  A    between atoms: C_6  and  N_2 
REMARK    3  A    between atoms: C_11  and  C_6 
REMARK    4  A    between atoms: C_12  and  N_7 
REMARK    5  A    between atoms: C_13  and  C_12 
ROOT
ATOM      1  C   UNL d   1      13.656  12.604  -2.749  0.00  0.00     0.735 A 
ATOM      2  N   UNL d   1      13.832  13.171  -3.328  0.00  0.00    -0.138 N 
ATOM      3  N   UNL d   1      13.230  11.987  -3.105  0.00  0.00    -0.059 NA
ATOM      4  C   UNL d   1      13.515  12.908  -4.044  0.00  0.00     0.100 A 
ATOM      5  C   UNL d   1      13.144  12.175  -3.901  0.00  0.00     0.116 A 
ATOM      6  C   UNL d   1      13.513  13.231  -4.803  0.00  0.00     0.020 A 
ATOM      7  C   UNL d   1      12.775  11.779  -4.528  0.00  0.00     0.021 A 
ATOM      8  C   UNL d   1      13.144  12.832  -5.420  0.00  0.00     0.002 A 
ATOM      9  C   UNL d   1      12.773  12.102  -5.286  0.00  0.00     0.002 A 
ENDROOT
BRANCH   1  10
ATOM     10  N   UNL d   1      13.868  12.642  -1.952  0.00  0.00    -0.056 NA
BRANCH  10  11
ATOM     11  C   UNL d   1      14.255  12.012  -1.590  0.00  0.00     0.163 C 
BRANCH  11  12
ATOM     12  C   UNL d   1      14.347  11.985  -0.774  0.00  0.00     0.255 C 
ATOM     13  O   UNL d   1      14.854  12.512  -0.395  0.00  0.00    -0.281 OA
ENDBRANCH  11  12
ENDBRANCH  10  11
ENDBRANCH   1  10
BRANCH   2  14
ATOM     14  C   UNL d   1      14.248  13.871  -3.208  0.00  0.00     0.098 C 
BRANCH  14  15
ATOM     15  C   UNL d   1      13.878  14.602  -3.347  0.00  0.00     0.018 C 
ATOM     16  C   UNL d   1      14.271  15.303  -3.188  0.00  0.00     0.002 C 
ATOM     17  C   UNL d   1      13.108  14.618  -3.648  0.00  0.00     0.002 C 
ENDBRANCH  14  15
ENDBRANCH   2  14
TORSDOF 5
ENDMDL
MODEL 4
REMARK VINA RESULT:      21.9      9.250     10.136
REMARK  5 active torsions:
REMARK  status: ('A' for Active; 'I' for Inactive)
REMARK    1  A    between atoms: N_7  and  C_1 
REMARK    2  A    between atoms: C_6  and  N_2 
REMARK    3  A    between atoms: C_11  and  C_6 
REMARK    4  A    between atoms: C_12  and  N_7 
REMARK    5  A    between atoms: C_13  and  C_12 
ROOT
ATOM      1  C   UNL d   1      13.944  13.192  -2.644  0.00  0.00     0.735 A 
ATOM      2  N   UNL d   1      13.892  12.414  -2.363  0.00  0.00    -0.138 N 
ATOM      3  N   UNL d   1      14.335  13.653  -2.077  0.00  0.00    -0.059 NA
ATOM      4  C   UNL d   1      14.252  12.390  -1.619  0.00  0.00     0.100 A 
ATOM      5  C   UNL d   1      14.524  13.159  -1.446  0.00  0.00     0.116 A 
ATOM      6  C   UNL d   1      14.369  11.779  -1.077  0.00  0.00     0.020 A 
ATOM      7  C   UNL d   1      14.911  13.300  -0.728  0.00  0.00     0.021 A 
ATOM      8  C   UNL d   1      14.754  11.927  -0.366  0.00  0.00     0.002 A 
ATOM      9  C   UNL d   1      15.028  12.690  -0.187  0.00  0.00     0.002 A 
ENDROOT
BRANCH   1  10
ATOM     10  N   UNL d   1      13.655  13.465  -3.368  0.00  0.00    -0.056 NA
BRANCH  10  11
ATOM     11  C   UNL d   1      13.529  14.269  -3.492  0.00  0.00     0.163 C 
BRANCH  11  12
ATOM     12  C   UNL d   1      13.151  14.538  -4.171  0.00  0.00     0.255 C 
ATOM     13  O   UNL d   1      13.037  15.345  -4.292  0.00  0.00    -0.281 OA
ENDBRANCH  11  12
ENDBRANCH  10  11
ENDBRANCH   1  10
BRANCH   2  14
ATOM     14  C   UNL d   1      13.544  11.779  -2.755  0.00  0.00     0.098 C 
BRANCH  14  15
ATOM     15  C   UNL d   1      13.499  11.781  -3.585  0.00  0.00     0.018 C 
ATOM     16  C   UNL d   1      12.770  11.781  -3.960  0.00  0.00     0.002 C 
ATOM     17  C   UNL d   1      14.195  11.783  -4.032  0.00  0.00     0.002 C 
ENDBRANCH  14  15
ENDBRANCH   2  14
TORSDOF 5
ENDMDL
