MODEL 1
REMARK VINA RESULT:      -2.0      0.000      0.000
REMARK  3 active torsions:
REMARK  status: ('A' for Active; 'I' for Inactive)
REMARK    1  A    between atoms: N_2  and  S_1 
REMARK    2  A    between atoms: C_3  and  S_1 
REMARK    3  A    between atoms: O_16  and  C_9 
ROOT
ATOM      1  S   UNL d   1      32.629  18.656 -23.611  0.00  0.00     0.274 S 
ATOM      2  O   UNL d   1      33.240  18.535 -24.152  0.00  0.00    -0.199 OA
ATOM      3  O   UNL d   1      32.018  18.786 -23.067  0.00  0.00    -0.199 OA
ENDROOT
BRANCH   1   4
ATOM      4  N   UNL d   1      32.851  19.453 -23.539  0.00  0.00    -0.214 N 
ATOM      5  C   UNL d   1      33.059  19.956 -24.158  0.00  0.00     0.157 A 
ATOM      6  N   UNL d   1      33.238  20.693 -23.836  0.00  0.00    -0.226 NA
ATOM      7  C   UNL d   1      33.086  19.761 -24.959  0.00  0.00     0.041 C 
ATOM      8  C   UNL d   1      33.140  20.646 -23.016  0.00  0.00     0.100 A 
ATOM      9  C   UNL d   1      32.903  19.885 -22.836  0.00  0.00     0.094 A 
ATOM     10  C   UNL d   1      33.240  21.206 -22.419  0.00  0.00     0.021 A 
ATOM     11  C   UNL d   1      32.761  19.672 -22.048  0.00  0.00     0.020 A 
ATOM     12  C   UNL d   1      32.857  20.223 -21.445  0.00  0.00     0.002 A 
ATOM     13  C   UNL d   1      33.098  20.994 -21.631  0.00  0.00     0.002 A 
ENDBRANCH   1   4
BRANCH   1  14
ATOM     14  C   UNL d   1      32.408  17.863 -23.682  0.00  0.00     0.126 A 
ATOM     15  C   UNL d   1      32.906  17.268 -23.405  0.00  0.00     0.015 A 
ATOM     16  C   UNL d   1      32.685  16.475 -23.476  0.00  0.00     0.001 A 
ATOM     17  C   UNL d   1      33.180  15.892 -23.202  0.00  0.00     0.000 C 
ATOM     18  C   UNL d   1      31.960  16.281 -23.828  0.00  0.00     0.002 A 
ATOM     19  C   UNL d   1      31.462  16.876 -24.105  0.00  0.00     0.025 A 
ATOM     20  C   UNL d   1      31.745  15.499 -23.898  0.00  0.00     0.000 C 
ATOM     21  C   UNL d   1      31.686  17.667 -24.032  0.00  0.00     0.106 A 
BRANCH  21  22
ATOM     22  O   UNL d   1      31.192  18.260 -24.307  0.00  0.00    -0.327 OA
ATOM     23  C   UNL d   1      30.470  18.069 -24.633  0.00  0.00     0.181 C 
ENDBRANCH  21  22
ENDBRANCH   1  14
TORSDOF 3
ENDMDL
MODEL 2
REMARK VINA RESULT:      -1.4      2.298      4.346
REMARK  3 active torsions:
REMARK  status: ('A' for Active; 'I' for Inactive)
REMARK    1  A    between atoms: N_2  and  S_1 
REMARK    2  A    between atoms: C_3  and  S_1 
REMARK    3  A    between atoms: O_16  and  C_9 
ROOT
ATOM      1  S   UNL d   1      30.655  17.037 -24.239  0.00  0.00     0.274 S 
ATOM      2  O   UNL d   1      30.724  17.028 -25.061  0.00  0.00    -0.199 OA
ATOM      3  O   UNL d   1      30.579  17.041 -23.414  0.00  0.00    -0.199 OA
ENDROOT
BRANCH   1   4
ATOM      4  N   UNL d   1      30.003  16.525 -24.288  0.00  0.00    -0.214 N 
ATOM      5  C   UNL d   1      29.984  15.801 -24.681  0.00  0.00     0.157 A 
ATOM      6  N   UNL d   1      29.230  15.482 -24.587  0.00  0.00    -0.226 NA
ATOM      7  C   UNL d   1      30.606  15.453 -25.097  0.00  0.00     0.041 C 
ATOM      8  C   UNL d   1      28.782  16.009 -24.135  0.00  0.00     0.100 A 
ATOM      9  C   UNL d   1      29.257  16.649 -23.952  0.00  0.00     0.094 A 
ATOM     10  C   UNL d   1      28.001  15.980 -23.871  0.00  0.00     0.021 A 
ATOM     11  C   UNL d   1      28.955  17.272 -23.499  0.00  0.00     0.020 A 
ATOM     12  C   UNL d   1      28.178  17.253 -23.231  0.00  0.00     0.002 A 
ATOM     13  C   UNL d   1      27.698  16.603 -23.418  0.00  0.00     0.002 A 
ENDBRANCH   1   4
BRANCH   1  14
ATOM     14  C   UNL d   1      31.303  17.547 -24.190  0.00  0.00     0.126 A 
ATOM     15  C   UNL d   1      31.321  18.238 -24.638  0.00  0.00     0.015 A 
ATOM     16  C   UNL d   1      31.970  18.747 -24.589  0.00  0.00     0.001 A 
ATOM     17  C   UNL d   1      31.983  19.427 -25.033  0.00  0.00     0.000 C 
ATOM     18  C   UNL d   1      32.602  18.560 -24.087  0.00  0.00     0.002 A 
ATOM     19  C   UNL d   1      32.584  17.869 -23.639  0.00  0.00     0.025 A 
ATOM     20  C   UNL d   1      33.240  19.063 -24.040  0.00  0.00     0.000 C 
ATOM     21  C   UNL d   1      31.934  17.363 -23.690  0.00  0.00     0.106 A 
BRANCH  21  22
ATOM     22  O   UNL d   1      31.915  16.674 -23.245  0.00  0.00    -0.327 OA
ATOM     23  C   UNL d   1      32.595  16.401 -22.890  0.00  0.00     0.181 C 
ENDBRANCH  21  22
ENDBRANCH   1  14
TORSDOF 3
ENDMDL
MODEL 3
REMARK VINA RESULT:      -1.3      2.983      4.376
REMARK  3 active torsions:
REMARK  status: ('A' for Active; 'I' for Inactive)
REMARK    1  A    between atoms: N_2  and  S_1 
REMARK    2  A    between atoms: C_3  and  S_1 
REMARK    3  A    between atoms: O_16  and  C_9 
ROOT
ATOM      1  S   UNL d   1      32.509  22.037 -21.206  0.00  0.00     0.274 S 
ATOM      2  O   UNL d   1      33.241  22.395 -21.335  0.00  0.00    -0.199 OA
ATOM      3  O   UNL d   1      31.771  21.683 -21.071  0.00  0.00    -0.199 OA
ENDROOT
BRANCH   1   4
ATOM      4  N   UNL d   1      32.324  22.617 -20.641  0.00  0.00    -0.214 N 
ATOM      5  C   UNL d   1      31.848  23.279 -20.764  0.00  0.00     0.157 A 
ATOM      6  N   UNL d   1      31.815  23.701 -20.057  0.00  0.00    -0.226 NA
ATOM      7  C   UNL d   1      31.469  23.487 -21.467  0.00  0.00     0.041 C 
ATOM      8  C   UNL d   1      32.272  23.301 -19.496  0.00  0.00     0.100 A 
ATOM      9  C   UNL d   1      32.583  22.635 -19.856  0.00  0.00     0.094 A 
ATOM     10  C   UNL d   1      32.438  23.464 -18.705  0.00  0.00     0.021 A 
ATOM     11  C   UNL d   1      33.069  22.122 -19.425  0.00  0.00     0.020 A 
ATOM     12  C   UNL d   1      33.241  22.275 -18.636  0.00  0.00     0.002 A 
ATOM     13  C   UNL d   1      32.924  22.950 -18.274  0.00  0.00     0.002 A 
ENDBRANCH   1   4
BRANCH   1  14
ATOM     14  C   UNL d   1      32.692  21.460 -21.768  0.00  0.00     0.126 A 
ATOM     15  C   UNL d   1      32.588  20.662 -21.591  0.00  0.00     0.015 A 
ATOM     16  C   UNL d   1      32.771  20.085 -22.154  0.00  0.00     0.001 A 
ATOM     17  C   UNL d   1      32.667  19.300 -21.974  0.00  0.00     0.000 C 
ATOM     18  C   UNL d   1      33.061  20.313 -22.896  0.00  0.00     0.002 A 
ATOM     19  C   UNL d   1      33.165  21.110 -23.073  0.00  0.00     0.025 A 
ATOM     20  C   UNL d   1      33.241  19.742 -23.449  0.00  0.00     0.000 C 
ATOM     21  C   UNL d   1      32.981  21.684 -22.509  0.00  0.00     0.106 A 
BRANCH  21  22
ATOM     22  O   UNL d   1      33.084  22.479 -22.683  0.00  0.00    -0.327 OA
ATOM     23  C   UNL d   1      33.104  22.725 -23.459  0.00  0.00     0.181 C 
ENDBRANCH  21  22
ENDBRANCH   1  14
TORSDOF 3
ENDMDL
MODEL 4
REMARK VINA RESULT:      -1.1      1.788      4.162
REMARK  3 active torsions:
REMARK  status: ('A' for Active; 'I' for Inactive)
REMARK    1  A    between atoms: N_2  and  S_1 
REMARK    2  A    between atoms: C_3  and  S_1 
REMARK    3  A    between atoms: O_16  and  C_9 
ROOT
ATOM      1  S   UNL d   1      31.543  17.410 -24.278  0.00  0.00     0.274 S 
ATOM      2  O   UNL d   1      31.141  17.522 -23.566  0.00  0.00    -0.199 OA
ATOM      3  O   UNL d   1      31.942  17.290 -24.994  0.00  0.00    -0.199 OA
ENDROOT
BRANCH   1   4
ATOM      4  N   UNL d   1      31.115  16.711 -24.409  0.00  0.00    -0.214 N 
ATOM      5  C   UNL d   1      31.427  15.994 -24.673  0.00  0.00     0.157 A 
ATOM      6  N   UNL d   1      30.807  15.453 -24.724  0.00  0.00    -0.226 NA
ATOM      7  C   UNL d   1      32.217  15.840 -24.855  0.00  0.00     0.041 C 
ATOM      8  C   UNL d   1      30.112  15.834 -24.492  0.00  0.00     0.100 A 
ATOM      9  C   UNL d   1      30.303  16.606 -24.299  0.00  0.00     0.094 A 
ATOM     10  C   UNL d   1      29.333  15.569 -24.435  0.00  0.00     0.021 A 
ATOM     11  C   UNL d   1      29.711  17.126 -24.044  0.00  0.00     0.020 A 
ATOM     12  C   UNL d   1      28.932  16.872 -23.983  0.00  0.00     0.002 A 
ATOM     13  C   UNL d   1      28.741  16.089 -24.180  0.00  0.00     0.002 A 
ENDBRANCH   1   4
BRANCH   1  14
ATOM     14  C   UNL d   1      31.969  18.106 -24.147  0.00  0.00     0.126 A 
ATOM     15  C   UNL d   1      31.921  18.727 -24.686  0.00  0.00     0.015 A 
ATOM     16  C   UNL d   1      32.346  19.423 -24.556  0.00  0.00     0.001 A 
ATOM     17  C   UNL d   1      32.296  20.033 -25.090  0.00  0.00     0.000 C 
ATOM     18  C   UNL d   1      32.822  19.493 -23.881  0.00  0.00     0.002 A 
ATOM     19  C   UNL d   1      32.870  18.872 -23.342  0.00  0.00     0.025 A 
ATOM     20  C   UNL d   1      33.241  20.180 -23.754  0.00  0.00     0.000 C 
ATOM     21  C   UNL d   1      32.444  18.178 -23.476  0.00  0.00     0.106 A 
BRANCH  21  22
ATOM     22  O   UNL d   1      32.490  17.559 -22.941  0.00  0.00    -0.327 OA
ATOM     23  C   UNL d   1      33.043  17.580 -22.343  0.00  0.00     0.181 C 
ENDBRANCH  21  22
ENDBRANCH   1  14
TORSDOF 3
ENDMDL
MODEL 5
REMARK VINA RESULT:      -0.9      1.460      3.982
REMARK  3 active torsions:
REMARK  status: ('A' for Active; 'I' for Inactive)
REMARK    1  A    between atoms: N_2  and  S_1 
REMARK    2  A    between atoms: C_3  and  S_1 
REMARK    3  A    between atoms: O_16  and  C_9 
ROOT
ATOM      1  S   UNL d   1      32.192  17.982 -24.302  0.00  0.00     0.274 S 
ATOM      2  O   UNL d   1      32.381  18.097 -25.097  0.00  0.00    -0.199 OA
ATOM      3  O   UNL d   1      31.999  17.858 -23.505  0.00  0.00    -0.199 OA
ENDROOT
BRANCH   1   4
ATOM      4  N   UNL d   1      31.927  17.214 -24.476  0.00  0.00    -0.214 N 
ATOM      5  C   UNL d   1      32.405  16.559 -24.625  0.00  0.00     0.157 A 
ATOM      6  N   UNL d   1      31.912  15.915 -24.771  0.00  0.00    -0.226 NA
ATOM      7  C   UNL d   1      33.230  16.545 -24.628  0.00  0.00     0.041 C 
ATOM      8  C   UNL d   1      31.129  16.171 -24.713  0.00  0.00     0.100 A 
ATOM      9  C   UNL d   1      31.140  16.969 -24.531  0.00  0.00     0.094 A 
ATOM     10  C   UNL d   1      30.412  15.773 -24.803  0.00  0.00     0.021 A 
ATOM     11  C   UNL d   1      30.428  17.381 -24.438  0.00  0.00     0.020 A 
ATOM     12  C   UNL d   1      29.708  16.993 -24.525  0.00  0.00     0.002 A 
ATOM     13  C   UNL d   1      29.700  16.185 -24.709  0.00  0.00     0.002 A 
ENDBRANCH   1   4
BRANCH   1  14
ATOM     14  C   UNL d   1      32.455  18.746 -24.128  0.00  0.00     0.126 A 
ATOM     15  C   UNL d   1      32.418  19.336 -24.702  0.00  0.00     0.015 A 
ATOM     16  C   UNL d   1      32.681  20.100 -24.528  0.00  0.00     0.001 A 
ATOM     17  C   UNL d   1      32.643  20.679 -25.097  0.00  0.00     0.000 C 
ATOM     18  C   UNL d   1      32.982  20.269 -23.775  0.00  0.00     0.002 A 
ATOM     19  C   UNL d   1      33.019  19.679 -23.201  0.00  0.00     0.025 A 
ATOM     20  C   UNL d   1      33.241  21.023 -23.606  0.00  0.00     0.000 C 
ATOM     21  C   UNL d   1      32.755  18.917 -23.378  0.00  0.00     0.106 A 
BRANCH  21  22
ATOM     22  O   UNL d   1      32.790  18.328 -22.809  0.00  0.00    -0.327 OA
ATOM     23  C   UNL d   1      33.130  18.484 -22.085  0.00  0.00     0.181 C 
ENDBRANCH  21  22
ENDBRANCH   1  14
TORSDOF 3
ENDMDL
MODEL 6
REMARK VINA RESULT:      -0.8      2.373      3.680
REMARK  3 active torsions:
REMARK  status: ('A' for Active; 'I' for Inactive)
REMARK    1  A    between atoms: N_2  and  S_1 
REMARK    2  A    between atoms: C_3  and  S_1 
REMARK    3  A    between atoms: O_16  and  C_9 
ROOT
ATOM      1  S   UNL d   1      30.320  16.547 -23.903  0.00  0.00     0.274 S 
ATOM      2  O   UNL d   1      30.235  17.320 -24.180  0.00  0.00    -0.199 OA
ATOM      3  O   UNL d   1      30.414  15.771 -23.627  0.00  0.00    -0.199 OA
ENDROOT
BRANCH   1   4
ATOM      4  N   UNL d   1      31.121  16.557 -24.122  0.00  0.00    -0.214 N 
ATOM      5  C   UNL d   1      31.480  16.054 -24.669  0.00  0.00     0.157 A 
ATOM      6  N   UNL d   1      32.278  16.259 -24.714  0.00  0.00    -0.226 NA
ATOM      7  C   UNL d   1      31.112  15.453 -25.097  0.00  0.00     0.041 C 
ATOM      8  C   UNL d   1      32.412  16.888 -24.195  0.00  0.00     0.100 A 
ATOM      9  C   UNL d   1      31.701  17.069 -23.833  0.00  0.00     0.094 A 
ATOM     10  C   UNL d   1      33.095  17.313 -24.013  0.00  0.00     0.021 A 
ATOM     11  C   UNL d   1      31.665  17.684 -23.279  0.00  0.00     0.020 A 
ATOM     12  C   UNL d   1      32.340  18.114 -23.090  0.00  0.00     0.002 A 
ATOM     13  C   UNL d   1      33.059  17.927 -23.459  0.00  0.00     0.002 A 
ENDBRANCH   1   4
BRANCH   1  14
ATOM     14  C   UNL d   1      29.523  16.537 -23.685  0.00  0.00     0.126 A 
ATOM     15  C   UNL d   1      29.254  15.997 -23.125  0.00  0.00     0.015 A 
ATOM     16  C   UNL d   1      28.457  15.987 -22.907  0.00  0.00     0.001 A 
ATOM     17  C   UNL d   1      28.197  15.453 -22.354  0.00  0.00     0.000 C 
ATOM     18  C   UNL d   1      27.930  16.524 -23.255  0.00  0.00     0.002 A 
ATOM     19  C   UNL d   1      28.199  17.064 -23.815  0.00  0.00     0.025 A 
ATOM     20  C   UNL d   1      27.145  16.512 -23.039  0.00  0.00     0.000 C 
ATOM     21  C   UNL d   1      28.996  17.071 -24.031  0.00  0.00     0.106 A 
BRANCH  21  22
ATOM     22  O   UNL d   1      29.265  17.608 -24.588  0.00  0.00    -0.327 OA
ATOM     23  C   UNL d   1      28.732  18.026 -25.040  0.00  0.00     0.181 C 
ENDBRANCH  21  22
ENDBRANCH   1  14
TORSDOF 3
ENDMDL
