MODEL 1
REMARK VINA RESULT:      11.1      0.000      0.000
REMARK  4 active torsions:
REMARK  status: ('A' for Active; 'I' for Inactive)
REMARK    1  A    between atoms: N_7  and  C_2 
REMARK    2  A    between atoms: C_6  and  C_3 
REMARK    3  A    between atoms: C_16  and  N_7 
REMARK    4  A    between atoms: C_10  and  C_16 
ROOT
ATOM      1  N   UNL d   1      14.498  13.091  -1.515  0.00  0.00    -0.222 NA
ATOM      2  C   UNL d   1      14.812  12.875  -0.786  0.00  0.00     0.172 A 
ATOM      3  C   UNL d   1      14.201  12.402  -1.880  0.00  0.00     0.090 A 
ATOM      4  S   UNL d   1      14.714  12.071  -0.696  0.00  0.00    -0.048 SA
ATOM      5  C   UNL d   1      14.340  11.781  -1.365  0.00  0.00     0.057 A 
ENDROOT
BRANCH   3   6
ATOM      6  C   UNL d   1      13.836  12.393  -2.633  0.00  0.00     0.018 A 
ATOM      7  C   UNL d   1      14.024  12.977  -3.177  0.00  0.00     0.002 A 
ATOM      8  C   UNL d   1      13.659  12.968  -3.930  0.00  0.00     0.011 A 
ATOM      9  C   UNL d   1      13.126  12.375  -4.098  0.00  0.00     0.058 A 
ATOM     10  C   UNL d   1      12.935  11.786  -3.552  0.00  0.00     0.011 A 
ATOM     11 CL   UNL d   1      12.769  12.367  -4.835  0.00  0.00    -0.082 Cl
ATOM     12  C   UNL d   1      13.295  11.795  -2.810  0.00  0.00     0.002 A 
ENDBRANCH   3   6
BRANCH   2  13
ATOM     13  N   UNL d   1      15.164  13.364  -0.233  0.00  0.00    -0.332 N 
ATOM     14  H   UNL d   1      15.862  13.120   0.149  0.00  0.00     0.168 HD
BRANCH  13  15
ATOM     15  C   UNL d   1      14.829  14.104  -0.049  0.00  0.00     0.074 C 
BRANCH  15  16
ATOM     16  C   UNL d   1      15.273  14.780  -0.081  0.00  0.00     0.018 C 
ATOM     17  C   UNL d   1      14.905  15.541  -0.137  0.00  0.00     0.002 C 
ENDBRANCH  15  16
ENDBRANCH  13  15
ENDBRANCH   2  13
TORSDOF 4
ENDMDL
