MODEL 1
REMARK VINA RESULT:      56.5      0.000      0.000
REMARK  8 active torsions:
REMARK  status: ('A' for Active; 'I' for Inactive)
REMARK    1  A    between atoms: C_13  and  C_4 
REMARK    2  A    between atoms: N_16  and  C_5 
REMARK    3  A    between atoms: C_20  and  C_9 
REMARK    4  A    between atoms: N_11  and  C_18 
REMARK    5  A    between atoms: C_21  and  N_16 
REMARK    6  A    between atoms: C_18  and  C_19 
REMARK    7  A    between atoms: C_19  and  C_21 
REMARK    8  A    between atoms: C_24  and  C_20 
ROOT
ATOM      1  N   UNL d   1     -50.754  26.177  33.348  0.00  0.00    -0.184 N 
ATOM      2  C   UNL d   1     -51.315  25.562  33.342  0.00  0.00     0.168 A 
ATOM      3  N   UNL d   1     -51.799  27.131  33.369  0.00  0.00    -0.162 NA
ATOM      4  C   UNL d   1     -52.104  25.734  33.349  0.00  0.00     0.055 A 
ATOM      5  C   UNL d   1     -49.964  25.980  33.340  0.00  0.00     0.218 A 
ATOM      6  C   UNL d   1     -52.360  26.515  33.363  0.00  0.00     0.104 A 
ATOM      7  N   UNL d   1     -51.059  24.780  33.328  0.00  0.00    -0.227 NA
ATOM      8  C   UNL d   1     -49.702  25.217  33.326  0.00  0.00     0.071 A 
ATOM      9  C   UNL d   1     -50.264  24.602  33.320  0.00  0.00     0.087 A 
ATOM     10  C   UNL d   1     -53.153  26.697  33.371  0.00  0.00     0.023 C 
ENDROOT
BRANCH   5  11
ATOM     11  N   UNL d   1     -49.385  26.614  33.346  0.00  0.00    -0.380 NA
BRANCH  11  12
ATOM     12  C   UNL d   1     -48.756  27.198  33.371  0.00  0.00     0.164 C 
BRANCH  12  13
ATOM     13  C   UNL d   1     -48.539  27.550  34.114  0.00  0.00     0.054 C 
BRANCH  13  14
ATOM     14  C   UNL d   1     -48.591  28.393  34.212  0.00  0.00     0.084 C 
BRANCH  14  15
ATOM     15  N   UNL d   1     -48.189  28.768  34.850  0.00  0.00    -0.285 N 
ATOM     16  C   UNL d   1     -48.196  29.594  35.037  0.00  0.00     0.183 A 
ATOM     17  N   UNL d   1     -47.712  29.721  35.728  0.00  0.00    -0.222 NA
ATOM     18  C   UNL d   1     -47.401  28.975  35.975  0.00  0.00     0.120 A 
ATOM     19  C   UNL d   1     -47.691  28.384  35.439  0.00  0.00     0.102 A 
ENDBRANCH  14  15
ENDBRANCH  13  14
ENDBRANCH  12  13
ENDBRANCH  11  12
ENDBRANCH   5  11
BRANCH   9  20
ATOM     20  C   UNL d   1     -50.003  23.787  33.306  0.00  0.00     0.019 C 
BRANCH  20  21
ATOM     21  C   UNL d   1     -50.142  23.268  33.983  0.00  0.00     0.002 C 
ATOM     22  C   UNL d   1     -49.791  23.444  34.735  0.00  0.00     0.000 C 
ENDBRANCH  20  21
ENDBRANCH   9  20
BRANCH   4  23
ATOM     23  C   UNL d   1     -52.657  25.128  33.343  0.00  0.00     0.004 A 
ATOM     24  C   UNL d   1     -53.455  25.311  33.324  0.00  0.00     0.000 A 
ATOM     25  C   UNL d   1     -54.008  24.704  33.318  0.00  0.00     0.000 A 
ATOM     26  C   UNL d   1     -53.764  23.916  33.331  0.00  0.00     0.000 A 
ATOM     27  C   UNL d   1     -52.963  23.732  33.351  0.00  0.00     0.000 A 
ATOM     28  C   UNL d   1     -52.401  24.348  33.357  0.00  0.00     0.000 A 
ENDBRANCH   4  23
TORSDOF 8
ENDMDL
