MODEL 1
REMARK VINA RESULT:      -3.7      0.000      0.000
REMARK  5 active torsions:
REMARK  status: ('A' for Active; 'I' for Inactive)
REMARK    1  A    between atoms: C_7  and  N_1 
REMARK    2  A    between atoms: C_8  and  N_6 
REMARK    3  A    between atoms: C_15  and  C_7 
REMARK    4  A    between atoms: N_9  and  C_15 
REMARK    5  A    between atoms: O_20  and  C_14 
ROOT
ATOM      1  N   UNL d   1     -41.684-123.081 -49.809  0.00  0.00    -0.300 N 
ATOM      2  N   UNL d   1     -41.508-122.736 -51.413  0.00  0.00    -0.299 N 
ATOM      3  C   UNL d   1     -41.380-123.651 -50.325  0.00  0.00     0.100 A 
ATOM      4  C   UNL d   1     -41.900-122.338 -50.096  0.00  0.00     0.100 A 
ATOM      5  C   UNL d   1     -41.292-123.479 -51.127  0.00  0.00     0.100 A 
ATOM      6  C   UNL d   1     -41.812-122.165 -50.898  0.00  0.00     0.100 A 
ENDROOT
BRANCH   2   7
ATOM      7  C   UNL d   1     -41.420-122.563 -52.215  0.00  0.00     0.100 C 
BRANCH   7   8
ATOM      8  C   UNL d   1     -41.941-122.890 -52.769  0.00  0.00     0.105 C 
BRANCH   8   9
ATOM      9  N   UNL d   1     -41.920-122.647 -53.561  0.00  0.00    -0.239 N 
ATOM     10  C   UNL d   1     -41.547-123.035 -54.184  0.00  0.00     0.267 A 
ATOM     11  C   UNL d   1     -41.672-122.592 -54.872  0.00  0.00     0.061 A 
ATOM     12  O   UNL d   1     -41.124-123.740 -54.129  0.00  0.00    -0.267 OA
ATOM     13  C   UNL d   1     -41.430-122.713 -55.647  0.00  0.00     0.005 A 
ATOM     14  C   UNL d   1     -42.122-121.930 -54.674  0.00  0.00     0.061 A 
ATOM     15  C   UNL d   1     -41.642-122.166 -56.230  0.00  0.00     0.000 A 
ATOM     16  C   UNL d   1     -42.096-121.499 -56.027  0.00  0.00     0.000 A 
ATOM     17  C   UNL d   1     -42.331-121.389 -55.251  0.00  0.00     0.005 A 
ATOM     18  C   UNL d   1     -42.278-121.960 -53.865  0.00  0.00     0.267 A 
ATOM     19  O   UNL d   1     -42.714-121.403 -53.433  0.00  0.00    -0.267 OA
ENDBRANCH   8   9
ENDBRANCH   7   8
ENDBRANCH   2   7
BRANCH   1  20
ATOM     20  C   UNL d   1     -41.771-123.256 -49.004  0.00  0.00     0.086 A 
ATOM     21  C   UNL d   1     -42.506-123.500 -48.713  0.00  0.00     0.110 A 
ATOM     22  C   UNL d   1     -42.592-123.676 -47.904  0.00  0.00     0.026 A 
ATOM     23  C   UNL d   1     -41.947-123.607 -47.394  0.00  0.00     0.002 A 
ATOM     24  C   UNL d   1     -41.213-123.363 -47.686  0.00  0.00     0.002 A 
ATOM     25  C   UNL d   1     -41.124-123.188 -48.487  0.00  0.00     0.019 A 
BRANCH  21  26
ATOM     26  O   UNL d   1     -43.159-123.573 -49.210  0.00  0.00    -0.327 OA
ATOM     27  C   UNL d   1     -43.893-123.817 -48.919  0.00  0.00     0.181 C 
ENDBRANCH  21  26
ENDBRANCH   1  20
TORSDOF 5
ENDMDL
MODEL 2
REMARK VINA RESULT:      -3.5      0.145      1.171
REMARK  5 active torsions:
REMARK  status: ('A' for Active; 'I' for Inactive)
REMARK    1  A    between atoms: C_7  and  N_1 
REMARK    2  A    between atoms: C_8  and  N_6 
REMARK    3  A    between atoms: C_15  and  C_7 
REMARK    4  A    between atoms: N_9  and  C_15 
REMARK    5  A    between atoms: O_20  and  C_14 
ROOT
ATOM      1  N   UNL d   1     -41.702-123.162 -49.799  0.00  0.00    -0.300 N 
ATOM      2  N   UNL d   1     -41.518-122.929 -51.422  0.00  0.00    -0.299 N 
ATOM      3  C   UNL d   1     -41.720-122.397 -50.113  0.00  0.00     0.100 A 
ATOM      4  C   UNL d   1     -41.592-123.810 -50.297  0.00  0.00     0.100 A 
ATOM      5  C   UNL d   1     -41.628-122.281 -50.924  0.00  0.00     0.100 A 
ATOM      6  C   UNL d   1     -41.500-123.694 -51.109  0.00  0.00     0.100 A 
ENDROOT
BRANCH   2   7
ATOM      7  C   UNL d   1     -41.426-122.813 -52.234  0.00  0.00     0.100 C 
BRANCH   7   8
ATOM      8  C   UNL d   1     -42.079-122.878 -52.738  0.00  0.00     0.105 C 
BRANCH   8   9
ATOM      9  N   UNL d   1     -42.023-122.645 -53.531  0.00  0.00    -0.239 N 
ATOM     10  C   UNL d   1     -42.389-121.995 -53.879  0.00  0.00     0.267 A 
ATOM     11  C   UNL d   1     -42.176-121.979 -54.679  0.00  0.00     0.061 A 
ATOM     12  O   UNL d   1     -42.881-121.455 -53.496  0.00  0.00    -0.267 OA
ATOM     13  C   UNL d   1     -42.376-121.462 -55.284  0.00  0.00     0.005 A 
ATOM     14  C   UNL d   1     -41.678-122.620 -54.826  0.00  0.00     0.061 A 
ATOM     15  C   UNL d   1     -42.074-121.587 -56.044  0.00  0.00     0.000 A 
ATOM     16  C   UNL d   1     -41.571-122.235 -56.188  0.00  0.00     0.000 A 
ATOM     17  C   UNL d   1     -41.379-122.744 -55.577  0.00  0.00     0.005 A 
ATOM     18  C   UNL d   1     -41.580-123.034 -54.119  0.00  0.00     0.267 A 
ATOM     19  O   UNL d   1     -41.123-123.717 -54.014  0.00  0.00    -0.267 OA
ENDBRANCH   8   9
ENDBRANCH   7   8
ENDBRANCH   2   7
BRANCH   1  20
ATOM     20  C   UNL d   1     -41.794-123.276 -48.984  0.00  0.00     0.086 A 
ATOM     21  C   UNL d   1     -42.545-123.425 -48.671  0.00  0.00     0.110 A 
ATOM     22  C   UNL d   1     -42.636-123.539 -47.852  0.00  0.00     0.026 A 
ATOM     23  C   UNL d   1     -41.979-123.505 -47.353  0.00  0.00     0.002 A 
ATOM     24  C   UNL d   1     -41.229-123.357 -47.666  0.00  0.00     0.002 A 
ATOM     25  C   UNL d   1     -41.135-123.243 -48.478  0.00  0.00     0.019 A 
BRANCH  21  26
ATOM     26  O   UNL d   1     -43.209-123.462 -49.156  0.00  0.00    -0.327 OA
ATOM     27  C   UNL d   1     -43.909-123.817 -48.897  0.00  0.00     0.181 C 
ENDBRANCH  21  26
ENDBRANCH   1  20
TORSDOF 5
ENDMDL
