MODEL 1
REMARK VINA RESULT:      60.2      0.000      0.000
REMARK  5 active torsions:
REMARK  status: ('A' for Active; 'I' for Inactive)
REMARK    1  A    between atoms: S_8  and  C_2 
REMARK    2  A    between atoms: C_4  and  C_3 
REMARK    3  A    between atoms: C_18  and  S_8 
REMARK    4  A    between atoms: C_9  and  C_18 
REMARK       I    between atoms: N_11  and  C_9 
REMARK    5  A    between atoms: C_13  and  N_11 
ROOT
ATOM      1  C   UNL d   1     -47.803  30.065  35.155  0.00  0.00     0.096 A 
ATOM      2  C   UNL d   1     -47.393  30.811  35.095  0.00  0.00     0.120 A 
ATOM      3  C   UNL d   1     -47.697  29.589  35.832  0.00  0.00     0.085 A 
ATOM      4  N   UNL d   1     -46.900  31.040  35.716  0.00  0.00    -0.238 NA
ATOM      5  C   UNL d   1     -48.297  29.809  34.562  0.00  0.00     0.103 C 
ATOM      6  N   UNL d   1     -48.793  29.551  33.967  0.00  0.00    -0.191 NA
ATOM      7  C   UNL d   1     -47.195  29.835  36.450  0.00  0.00     0.024 A 
ATOM      8  C   UNL d   1     -46.785  30.581  36.390  0.00  0.00     0.082 A 
ATOM      9  C   UNL d   1     -46.296  30.841  36.972  0.00  0.00     0.021 C 
ENDROOT
BRANCH   2  10
ATOM     10  S   UNL d   1     -47.509  31.269  34.420  0.00  0.00    -0.062 SA
BRANCH  10  11
ATOM     11  C   UNL d   1     -47.514  32.088  34.464  0.00  0.00     0.099 C 
BRANCH  11  12
ATOM     12  C   UNL d   1     -47.235  32.532  33.822  0.00  0.00     0.281 C 
ATOM     13  N   UNL d   1     -47.656  33.178  33.571  0.00  0.00    -0.238 NA
ATOM     14  O   UNL d   1     -46.528  32.311  33.441  0.00  0.00    -0.265 OA
BRANCH  13  15
ATOM     15  C   UNL d   1     -48.352  33.391  33.950  0.00  0.00     0.088 C 
ATOM     16  C   UNL d   1     -49.060  33.611  34.343  0.00  0.00     0.025 C 
ATOM     17  C   UNL d   1     -48.779  33.135  33.306  0.00  0.00     0.025 C 
ATOM     18  C   UNL d   1     -47.916  33.640  34.580  0.00  0.00     0.025 C 
ENDBRANCH  13  15
ENDBRANCH  11  12
ENDBRANCH  10  11
ENDBRANCH   2  10
BRANCH   3  19
ATOM     19  C   UNL d   1     -48.091  28.873  35.890  0.00  0.00     0.419 C 
ATOM     20  F   UNL d   1     -48.481  28.162  35.947  0.00  0.00    -0.166 F 
ATOM     21  F   UNL d   1     -48.490  29.147  36.558  0.00  0.00    -0.166 F 
ATOM     22  F   UNL d   1     -47.690  28.599  35.221  0.00  0.00    -0.166 F 
ENDBRANCH   3  19
TORSDOF 5
ENDMDL
MODEL 2
REMARK VINA RESULT:      62.0      0.911      1.807
REMARK  5 active torsions:
REMARK  status: ('A' for Active; 'I' for Inactive)
REMARK    1  A    between atoms: S_8  and  C_2 
REMARK    2  A    between atoms: C_4  and  C_3 
REMARK    3  A    between atoms: C_18  and  S_8 
REMARK    4  A    between atoms: C_9  and  C_18 
REMARK       I    between atoms: N_11  and  C_9 
REMARK    5  A    between atoms: C_13  and  N_11 
ROOT
ATOM      1  C   UNL d   1     -47.176  30.581  35.798  0.00  0.00     0.096 A 
ATOM      2  C   UNL d   1     -47.297  30.671  34.959  0.00  0.00     0.120 A 
ATOM      3  C   UNL d   1     -47.470  29.905  36.189  0.00  0.00     0.085 A 
ATOM      4  N   UNL d   1     -47.707  30.079  34.556  0.00  0.00    -0.238 NA
ATOM      5  C   UNL d   1     -46.776  31.146  36.227  0.00  0.00     0.103 C 
ATOM      6  N   UNL d   1     -46.376  31.712  36.657  0.00  0.00    -0.191 NA
ATOM      7  C   UNL d   1     -47.882  29.317  35.766  0.00  0.00     0.024 A 
ATOM      8  C   UNL d   1     -48.003  29.406  34.926  0.00  0.00     0.082 A 
ATOM      9  C   UNL d   1     -48.397  28.853  34.497  0.00  0.00     0.021 C 
ENDROOT
BRANCH   2  10
ATOM     10  S   UNL d   1     -47.000  31.345  34.588  0.00  0.00    -0.062 SA
BRANCH  10  11
ATOM     11  C   UNL d   1     -47.503  31.942  34.335  0.00  0.00     0.099 C 
BRANCH  11  12
ATOM     12  C   UNL d   1     -47.253  32.456  33.736  0.00  0.00     0.281 C 
ATOM     13  N   UNL d   1     -47.744  33.054  33.494  0.00  0.00    -0.238 NA
ATOM     14  O   UNL d   1     -46.503  32.355  33.388  0.00  0.00    -0.265 OA
BRANCH  13  15
ATOM     15  C   UNL d   1     -48.482  33.149  33.841  0.00  0.00     0.088 C 
ATOM     16  C   UNL d   1     -49.239  33.241  34.191  0.00  0.00     0.025 C 
ATOM     17  C   UNL d   1     -48.165  33.685  34.365  0.00  0.00     0.025 C 
ATOM     18  C   UNL d   1     -48.782  32.616  33.315  0.00  0.00     0.025 C 
ENDBRANCH  13  15
ENDBRANCH  11  12
ENDBRANCH  10  11
ENDBRANCH   2  10
BRANCH   3  19
ATOM     19  C   UNL d   1     -47.353  29.820  36.995  0.00  0.00     0.419 C 
ATOM     20  F   UNL d   1     -47.238  29.734  37.795  0.00  0.00    -0.166 F 
ATOM     21  F   UNL d   1     -48.147  30.002  37.129  0.00  0.00    -0.166 F 
ATOM     22  F   UNL d   1     -46.558  29.636  36.860  0.00  0.00    -0.166 F 
ENDBRANCH   3  19
TORSDOF 5
ENDMDL
