MODEL 1
REMARK VINA RESULT:      -2.8      0.000      0.000
REMARK  1 active torsions:
REMARK  status: ('A' for Active; 'I' for Inactive)
REMARK    1  A    between atoms: C_5  and  C_1 
ROOT
ATOM      1  C   UNL d   1      32.156  22.408 -21.035  0.00  0.00     0.169 A 
ATOM      2  N   UNL d   1      31.660  21.844 -20.709  0.00  0.00    -0.142 NA
ATOM      3  C   UNL d   1      32.764  22.017 -21.419  0.00  0.00     0.048 A 
ATOM      4  N   UNL d   1      31.959  21.097 -20.891  0.00  0.00    -0.148 NA
ATOM      5  C   UNL d   1      32.646  21.204 -21.333  0.00  0.00     0.105 A 
ATOM      6  C   UNL d   1      33.129  20.607 -21.634  0.00  0.00     0.023 C 
ENDROOT
BRANCH   1   7
ATOM      7  C   UNL d   1      32.060  23.230 -20.984  0.00  0.00     0.231 C 
ATOM      8  O   UNL d   1      31.481  23.602 -21.437  0.00  0.00    -0.643 OA
ATOM      9  O   UNL d   1      32.542  23.671 -20.485  0.00  0.00    -0.643 OA
ENDBRANCH   1   7
TORSDOF 1
ENDMDL
MODEL 2
REMARK VINA RESULT:      -2.7      1.719      2.369
REMARK  1 active torsions:
REMARK  status: ('A' for Active; 'I' for Inactive)
REMARK    1  A    between atoms: C_5  and  C_1 
ROOT
ATOM      1  C   UNL d   1      32.504  21.391 -21.125  0.00  0.00     0.169 A 
ATOM      2  N   UNL d   1      31.774  21.588 -20.812  0.00  0.00    -0.142 NA
ATOM      3  C   UNL d   1      32.866  22.083 -21.374  0.00  0.00     0.048 A 
ATOM      4  N   UNL d   1      31.679  22.407 -20.865  0.00  0.00    -0.148 NA
ATOM      5  C   UNL d   1      32.358  22.714 -21.215  0.00  0.00     0.105 A 
ATOM      6  C   UNL d   1      32.505  23.510 -21.378  0.00  0.00     0.023 C 
ENDROOT
BRANCH   1   7
ATOM      7  C   UNL d   1      32.821  20.627 -21.181  0.00  0.00     0.231 C 
ATOM      8  O   UNL d   1      33.241  20.312 -20.545  0.00  0.00    -0.643 OA
ATOM      9  O   UNL d   1      32.718  20.187 -21.868  0.00  0.00    -0.643 OA
ENDBRANCH   1   7
TORSDOF 1
ENDMDL
MODEL 3
REMARK VINA RESULT:      -2.4      1.681      2.337
REMARK  1 active torsions:
REMARK  status: ('A' for Active; 'I' for Inactive)
REMARK    1  A    between atoms: C_5  and  C_1 
ROOT
ATOM      1  C   UNL d   1      32.294  22.313 -20.761  0.00  0.00     0.169 A 
ATOM      2  N   UNL d   1      31.894  22.987 -20.997  0.00  0.00    -0.142 NA
ATOM      3  C   UNL d   1      32.720  22.497 -20.086  0.00  0.00     0.048 A 
ATOM      4  N   UNL d   1      32.071  23.595 -20.468  0.00  0.00    -0.148 NA
ATOM      5  C   UNL d   1      32.585  23.290 -19.901  0.00  0.00     0.105 A 
ATOM      6  C   UNL d   1      32.907  23.702 -19.263  0.00  0.00     0.023 C 
ENDROOT
BRANCH   1   7
ATOM      7  C   UNL d   1      32.272  21.574 -21.138  0.00  0.00     0.231 C 
ATOM      8  O   UNL d   1      32.829  21.396 -21.718  0.00  0.00    -0.643 OA
ATOM      9  O   UNL d   1      31.696  21.024 -20.932  0.00  0.00    -0.643 OA
ENDBRANCH   1   7
TORSDOF 1
ENDMDL
MODEL 4
REMARK VINA RESULT:      -1.9      6.808      7.260
REMARK  1 active torsions:
REMARK  status: ('A' for Active; 'I' for Inactive)
REMARK    1  A    between atoms: C_5  and  C_1 
ROOT
ATOM      1  C   UNL d   1      30.260  15.927 -23.399  0.00  0.00     0.169 A 
ATOM      2  N   UNL d   1      29.962  15.459 -22.795  0.00  0.00    -0.142 NA
ATOM      3  C   UNL d   1      29.631  16.319 -23.746  0.00  0.00     0.048 A 
ATOM      4  N   UNL d   1      29.143  15.561 -22.767  0.00  0.00    -0.148 NA
ATOM      5  C   UNL d   1      28.937  16.096 -23.359  0.00  0.00     0.105 A 
ATOM      6  C   UNL d   1      28.175  16.360 -23.532  0.00  0.00     0.023 C 
ENDROOT
BRANCH   1   7
ATOM      7  C   UNL d   1      31.057  15.991 -23.618  0.00  0.00     0.231 C 
ATOM      8  O   UNL d   1      31.523  16.587 -23.292  0.00  0.00    -0.643 OA
ATOM      9  O   UNL d   1      31.379  15.461 -24.159  0.00  0.00    -0.643 OA
ENDBRANCH   1   7
TORSDOF 1
ENDMDL
MODEL 5
REMARK VINA RESULT:      -1.8      4.011      4.724
REMARK  1 active torsions:
REMARK  status: ('A' for Active; 'I' for Inactive)
REMARK    1  A    between atoms: C_5  and  C_1 
ROOT
ATOM      1  C   UNL d   1      32.821  18.338 -23.121  0.00  0.00     0.169 A 
ATOM      2  N   UNL d   1      33.241  17.667 -22.912  0.00  0.00    -0.142 NA
ATOM      3  C   UNL d   1      32.177  18.102 -23.569  0.00  0.00     0.048 A 
ATOM      4  N   UNL d   1      32.857  17.009 -23.230  0.00  0.00    -0.148 NA
ATOM      5  C   UNL d   1      32.195  17.279 -23.639  0.00  0.00     0.105 A 
ATOM      6  C   UNL d   1      31.650  16.812 -24.046  0.00  0.00     0.023 C 
ENDROOT
BRANCH   1   7
ATOM      7  C   UNL d   1      33.013  19.118 -22.917  0.00  0.00     0.231 C 
ATOM      8  O   UNL d   1      32.974  19.354 -22.128  0.00  0.00    -0.643 OA
ATOM      9  O   UNL d   1      33.241  19.652 -23.499  0.00  0.00    -0.643 OA
ENDBRANCH   1   7
TORSDOF 1
ENDMDL
MODEL 6
REMARK VINA RESULT:      -1.7      5.132      5.907
REMARK  1 active torsions:
REMARK  status: ('A' for Active; 'I' for Inactive)
REMARK    1  A    between atoms: C_5  and  C_1 
ROOT
ATOM      1  C   UNL d   1      31.948  17.137 -23.707  0.00  0.00     0.169 A 
ATOM      2  N   UNL d   1      31.705  17.696 -24.253  0.00  0.00    -0.142 NA
ATOM      3  C   UNL d   1      32.508  17.486 -23.222  0.00  0.00     0.048 A 
ATOM      4  N   UNL d   1      32.116  18.398 -24.109  0.00  0.00    -0.148 NA
ATOM      5  C   UNL d   1      32.616  18.267 -23.468  0.00  0.00     0.105 A 
ATOM      6  C   UNL d   1      33.131  18.817 -23.131  0.00  0.00     0.023 C 
ENDROOT
BRANCH   1   7
ATOM      7  C   UNL d   1      31.675  16.356 -23.653  0.00  0.00     0.231 C 
ATOM      8  O   UNL d   1      32.091  15.752 -24.028  0.00  0.00    -0.643 OA
ATOM      9  O   UNL d   1      30.991  16.187 -23.228  0.00  0.00    -0.643 OA
ENDBRANCH   1   7
TORSDOF 1
ENDMDL
MODEL 7
REMARK VINA RESULT:      -1.7      6.907      7.388
REMARK  1 active torsions:
REMARK  status: ('A' for Active; 'I' for Inactive)
REMARK    1  A    between atoms: C_5  and  C_1 
ROOT
ATOM      1  C   UNL d   1      29.092  16.802 -24.580  0.00  0.00     0.169 A 
ATOM      2  N   UNL d   1      29.217  16.087 -24.958  0.00  0.00    -0.142 NA
ATOM      3  C   UNL d   1      28.672  16.654 -23.893  0.00  0.00     0.048 A 
ATOM      4  N   UNL d   1      28.873  15.488 -24.505  0.00  0.00    -0.148 NA
ATOM      5  C   UNL d   1      28.534  15.841 -23.842  0.00  0.00     0.105 A 
ATOM      6  C   UNL d   1      28.129  15.453 -23.237  0.00  0.00     0.023 C 
ENDROOT
BRANCH   1   7
ATOM      7  C   UNL d   1      29.346  17.546 -24.846  0.00  0.00     0.231 C 
ATOM      8  O   UNL d   1      30.151  17.720 -24.862  0.00  0.00    -0.643 OA
ATOM      9  O   UNL d   1      28.796  18.105 -25.091  0.00  0.00    -0.643 OA
ENDBRANCH   1   7
TORSDOF 1
ENDMDL
MODEL 8
REMARK VINA RESULT:      -1.7      3.731      4.240
REMARK  1 active torsions:
REMARK  status: ('A' for Active; 'I' for Inactive)
REMARK    1  A    between atoms: C_5  and  C_1 
ROOT
ATOM      1  C   UNL d   1      32.797  23.236 -17.165  0.00  0.00     0.169 A 
ATOM      2  N   UNL d   1      32.031  23.454 -17.355  0.00  0.00    -0.142 NA
ATOM      3  C   UNL d   1      33.241  23.248 -17.853  0.00  0.00     0.048 A 
ATOM      4  N   UNL d   1      31.996  23.602 -18.167  0.00  0.00    -0.148 NA
ATOM      5  C   UNL d   1      32.749  23.474 -18.476  0.00  0.00     0.105 A 
ATOM      6  C   UNL d   1      32.971  23.557 -19.267  0.00  0.00     0.023 C 
ENDROOT
BRANCH   1   7
ATOM      7  C   UNL d   1      33.075  23.039 -16.409  0.00  0.00     0.231 C 
ATOM      8  O   UNL d   1      33.188  22.247 -16.210  0.00  0.00    -0.643 OA
ATOM      9  O   UNL d   1      33.235  23.631 -15.861  0.00  0.00    -0.643 OA
ENDBRANCH   1   7
TORSDOF 1
ENDMDL
MODEL 9
REMARK VINA RESULT:      -1.6      3.752      4.464
REMARK  1 active torsions:
REMARK  status: ('A' for Active; 'I' for Inactive)
REMARK    1  A    between atoms: C_5  and  C_1 
ROOT
ATOM      1  C   UNL d   1      32.836  18.790 -23.315  0.00  0.00     0.169 A 
ATOM      2  N   UNL d   1      33.062  19.462 -23.725  0.00  0.00    -0.142 NA
ATOM      3  C   UNL d   1      32.872  18.960 -22.515  0.00  0.00     0.048 A 
ATOM      4  N   UNL d   1      33.241  20.054 -23.178  0.00  0.00    -0.148 NA
ATOM      5  C   UNL d   1      33.122  19.742 -22.424  0.00  0.00     0.105 A 
ATOM      6  C   UNL d   1      33.234  20.138 -21.709  0.00  0.00     0.023 C 
ENDROOT
BRANCH   1   7
ATOM      7  C   UNL d   1      32.610  18.067 -23.651  0.00  0.00     0.231 C 
ATOM      8  O   UNL d   1      31.846  17.974 -23.944  0.00  0.00    -0.643 OA
ATOM      9  O   UNL d   1      33.148  17.445 -23.691  0.00  0.00    -0.643 OA
ENDBRANCH   1   7
TORSDOF 1
ENDMDL
