MODEL 1
REMARK VINA RESULT:      -3.0      0.000      0.000
REMARK  5 active torsions:
REMARK  status: ('A' for Active; 'I' for Inactive)
REMARK    1  A    between atoms: C_10  and  C_4 
REMARK       I    between atoms: C_6  and  N_8 
REMARK    2  A    between atoms: C_9  and  C_6 
REMARK    3  A    between atoms: N_8  and  C_13 
REMARK    4  A    between atoms: C_11  and  C_9 
REMARK    5  A    between atoms: C_13  and  C_10 
ROOT
ATOM      1  C   UNL d   1      33.072  20.125 -21.353  0.00  0.00     0.279 C 
ATOM      2  O   UNL d   1      33.240  20.243 -20.553  0.00  0.00    -0.265 OA
ATOM      3  N   UNL d   1      33.121  19.374 -21.673  0.00  0.00    -0.206 NA
ENDROOT
BRANCH   1   4
ATOM      4  C   UNL d   1      32.857  20.768 -21.822  0.00  0.00     0.062 C 
BRANCH   4   5
ATOM      5  C   UNL d   1      32.706  21.508 -21.476  0.00  0.00     0.005 A 
ATOM      6  C   UNL d   1      32.033  21.600 -21.033  0.00  0.00     0.001 A 
ATOM      7  C   UNL d   1      31.878  22.333 -20.688  0.00  0.00     0.011 A 
ATOM      8  C   UNL d   1      32.395  22.962 -20.788  0.00  0.00     0.058 A 
ATOM      9  C   UNL d   1      33.079  22.866 -21.238  0.00  0.00     0.011 A 
ATOM     10 CL   UNL d   1      32.230  23.698 -20.435  0.00  0.00    -0.082 Cl
ATOM     11  C   UNL d   1      33.233  22.134 -21.583  0.00  0.00     0.001 A 
ENDBRANCH   4   5
ENDBRANCH   1   4
BRANCH   3  12
ATOM     12  C   UNL d   1      32.949  19.259 -22.489  0.00  0.00     0.104 C 
BRANCH  12  13
ATOM     13  C   UNL d   1      33.063  18.512 -22.822  0.00  0.00     0.040 C 
BRANCH  13  14
ATOM     14  C   UNL d   1      32.854  18.389 -23.619  0.00  0.00     0.090 A 
ATOM     15  N   UNL d   1      32.176  17.955 -23.803  0.00  0.00    -0.238 NA
ATOM     16  C   UNL d   1      32.110  17.923 -24.624  0.00  0.00     0.111 A 
ATOM     17  S   UNL d   1      32.739  18.332 -24.946  0.00  0.00    -0.066 SA
ATOM     18  C   UNL d   1      31.512  17.544 -25.058  0.00  0.00     0.028 C 
ATOM     19  C   UNL d   1      33.206  18.625 -24.334  0.00  0.00     0.056 A 
ENDBRANCH  13  14
ENDBRANCH  12  13
ENDBRANCH   3  12
TORSDOF 5
ENDMDL
MODEL 2
REMARK VINA RESULT:      -1.8      1.455      1.797
REMARK  5 active torsions:
REMARK  status: ('A' for Active; 'I' for Inactive)
REMARK    1  A    between atoms: C_10  and  C_4 
REMARK       I    between atoms: C_6  and  N_8 
REMARK    2  A    between atoms: C_9  and  C_6 
REMARK    3  A    between atoms: N_8  and  C_13 
REMARK    4  A    between atoms: C_11  and  C_9 
REMARK    5  A    between atoms: C_13  and  C_10 
ROOT
ATOM      1  C   UNL d   1      33.144  19.962 -23.479  0.00  0.00     0.279 C 
ATOM      2  O   UNL d   1      33.240  20.701 -23.836  0.00  0.00    -0.265 OA
ATOM      3  N   UNL d   1      32.971  19.307 -23.937  0.00  0.00    -0.206 NA
ENDROOT
BRANCH   1   4
ATOM      4  C   UNL d   1      33.225  19.893 -22.661  0.00  0.00     0.062 C 
BRANCH   4   5
ATOM      5  C   UNL d   1      33.034  20.531 -22.165  0.00  0.00     0.005 A 
ATOM      6  C   UNL d   1      32.643  20.380 -21.471  0.00  0.00     0.001 A 
ATOM      7  C   UNL d   1      32.451  21.010 -20.974  0.00  0.00     0.011 A 
ATOM      8  C   UNL d   1      32.652  21.780 -21.175  0.00  0.00     0.058 A 
ATOM      9  C   UNL d   1      33.050  21.930 -21.881  0.00  0.00     0.011 A 
ATOM     10 CL   UNL d   1      32.454  22.408 -20.666  0.00  0.00    -0.082 Cl
ATOM     11  C   UNL d   1      33.241  21.302 -22.377  0.00  0.00     0.001 A 
ENDBRANCH   4   5
ENDBRANCH   1   4
BRANCH   3  12
ATOM     12  C   UNL d   1      32.875  18.557 -23.568  0.00  0.00     0.104 C 
BRANCH  12  13
ATOM     13  C   UNL d   1      32.905  17.874 -24.032  0.00  0.00     0.040 C 
BRANCH  13  14
ATOM     14  C   UNL d   1      32.432  17.222 -23.824  0.00  0.00     0.090 A 
ATOM     15  N   UNL d   1      31.710  17.100 -24.207  0.00  0.00    -0.238 NA
ATOM     16  C   UNL d   1      31.366  16.421 -23.891  0.00  0.00     0.111 A 
ATOM     17  S   UNL d   1      31.867  16.126 -23.317  0.00  0.00    -0.066 SA
ATOM     18  C   UNL d   1      30.638  16.087 -24.109  0.00  0.00     0.028 C 
ATOM     19  C   UNL d   1      32.530  16.613 -23.267  0.00  0.00     0.056 A 
ENDBRANCH  13  14
ENDBRANCH  12  13
ENDBRANCH   3  12
TORSDOF 5
ENDMDL
MODEL 3
REMARK VINA RESULT:      -1.6      1.936      2.554
REMARK  5 active torsions:
REMARK  status: ('A' for Active; 'I' for Inactive)
REMARK    1  A    between atoms: C_10  and  C_4 
REMARK       I    between atoms: C_6  and  N_8 
REMARK    2  A    between atoms: C_9  and  C_6 
REMARK    3  A    between atoms: N_8  and  C_13 
REMARK    4  A    between atoms: C_11  and  C_9 
REMARK    5  A    between atoms: C_13  and  C_10 
ROOT
ATOM      1  C   UNL d   1      32.157  22.183 -20.612  0.00  0.00     0.279 C 
ATOM      2  O   UNL d   1      31.552  22.693 -20.374  0.00  0.00    -0.265 OA
ATOM      3  N   UNL d   1      32.044  21.687 -21.252  0.00  0.00    -0.206 NA
ENDROOT
BRANCH   1   4
ATOM      4  C   UNL d   1      32.870  22.178 -20.199  0.00  0.00     0.062 C 
BRANCH   4   5
ATOM      5  C   UNL d   1      32.928  22.546 -19.456  0.00  0.00     0.005 A 
ATOM      6  C   UNL d   1      32.736  23.331 -19.396  0.00  0.00     0.001 A 
ATOM      7  C   UNL d   1      32.792  23.702 -18.661  0.00  0.00     0.011 A 
ATOM      8  C   UNL d   1      33.037  23.285 -17.998  0.00  0.00     0.058 A 
ATOM      9  C   UNL d   1      33.232  22.487 -18.062  0.00  0.00     0.011 A 
ATOM     10 CL   UNL d   1      33.090  23.668 -17.261  0.00  0.00    -0.082 Cl
ATOM     11  C   UNL d   1      33.176  22.117 -18.796  0.00  0.00     0.001 A 
ENDBRANCH   4   5
ENDBRANCH   1   4
BRANCH   3  12
ATOM     12  C   UNL d   1      32.663  21.168 -21.490  0.00  0.00     0.104 C 
BRANCH  12  13
ATOM     13  C   UNL d   1      32.619  20.803 -22.229  0.00  0.00     0.040 C 
BRANCH  13  14
ATOM     14  C   UNL d   1      32.815  19.997 -22.294  0.00  0.00     0.090 A 
ATOM     15  N   UNL d   1      32.605  19.578 -22.975  0.00  0.00    -0.238 NA
ATOM     16  C   UNL d   1      32.867  18.801 -22.885  0.00  0.00     0.111 A 
ATOM     17  S   UNL d   1      33.233  18.739 -22.158  0.00  0.00    -0.066 SA
ATOM     18  C   UNL d   1      32.778  18.183 -23.432  0.00  0.00     0.028 C 
ATOM     19  C   UNL d   1      33.207  19.472 -21.784  0.00  0.00     0.056 A 
ENDBRANCH  13  14
ENDBRANCH  12  13
ENDBRANCH   3  12
TORSDOF 5
ENDMDL
MODEL 4
REMARK VINA RESULT:      -1.4      3.226      4.439
REMARK  5 active torsions:
REMARK  status: ('A' for Active; 'I' for Inactive)
REMARK    1  A    between atoms: C_10  and  C_4 
REMARK       I    between atoms: C_6  and  N_8 
REMARK    2  A    between atoms: C_9  and  C_6 
REMARK    3  A    between atoms: N_8  and  C_13 
REMARK    4  A    between atoms: C_11  and  C_9 
REMARK    5  A    between atoms: C_13  and  C_10 
ROOT
ATOM      1  C   UNL d   1      32.475  16.882 -23.298  0.00  0.00     0.279 C 
ATOM      2  O   UNL d   1      33.086  17.128 -22.799  0.00  0.00    -0.265 OA
ATOM      3  N   UNL d   1      31.941  16.318 -23.041  0.00  0.00    -0.206 NA
ENDROOT
BRANCH   1   4
ATOM      4  C   UNL d   1      32.411  17.208 -24.052  0.00  0.00     0.062 C 
BRANCH   4   5
ATOM      5  C   UNL d   1      32.611  18.003 -24.184  0.00  0.00     0.005 A 
ATOM      6  C   UNL d   1      33.039  18.190 -24.847  0.00  0.00     0.001 A 
ATOM      7  C   UNL d   1      33.241  18.978 -24.984  0.00  0.00     0.011 A 
ATOM      8  C   UNL d   1      33.014  19.567 -24.459  0.00  0.00     0.058 A 
ATOM      9  C   UNL d   1      32.580  19.374 -23.786  0.00  0.00     0.011 A 
ATOM     10 CL   UNL d   1      33.223  20.359 -24.606  0.00  0.00    -0.082 Cl
ATOM     11  C   UNL d   1      32.378  18.587 -23.650  0.00  0.00     0.001 A 
ENDBRANCH   4   5
ENDBRANCH   1   4
BRANCH   3  12
ATOM     12  C   UNL d   1      31.320  16.071 -23.554  0.00  0.00     0.104 C 
BRANCH  12  13
ATOM     13  C   UNL d   1      30.799  15.484 -23.299  0.00  0.00     0.040 C 
BRANCH  13  14
ATOM     14  C   UNL d   1      30.019  15.482 -23.589  0.00  0.00     0.090 A 
ATOM     15  N   UNL d   1      29.384  15.474 -23.060  0.00  0.00    -0.238 NA
ATOM     16  C   UNL d   1      28.687  15.474 -23.500  0.00  0.00     0.111 A 
ATOM     17  S   UNL d   1      28.886  15.481 -24.292  0.00  0.00    -0.066 SA
ATOM     18  C   UNL d   1      27.912  15.468 -23.201  0.00  0.00     0.028 C 
ATOM     19  C   UNL d   1      29.707  15.486 -24.359  0.00  0.00     0.056 A 
ENDBRANCH  13  14
ENDBRANCH  12  13
ENDBRANCH   3  12
TORSDOF 5
ENDMDL
MODEL 5
REMARK VINA RESULT:      -0.4      3.074      3.681
REMARK  5 active torsions:
REMARK  status: ('A' for Active; 'I' for Inactive)
REMARK    1  A    between atoms: C_10  and  C_4 
REMARK       I    between atoms: C_6  and  N_8 
REMARK    2  A    between atoms: C_9  and  C_6 
REMARK    3  A    between atoms: N_8  and  C_13 
REMARK    4  A    between atoms: C_11  and  C_9 
REMARK    5  A    between atoms: C_13  and  C_10 
ROOT
ATOM      1  C   UNL d   1      32.067  22.301 -20.298  0.00  0.00     0.279 C 
ATOM      2  O   UNL d   1      31.542  21.830 -19.869  0.00  0.00    -0.265 OA
ATOM      3  N   UNL d   1      32.254  22.106 -21.070  0.00  0.00    -0.206 NA
ENDROOT
BRANCH   1   4
ATOM      4  C   UNL d   1      32.400  22.966 -19.941  0.00  0.00     0.062 C 
BRANCH   4   5
ATOM      5  C   UNL d   1      32.590  22.959 -19.132  0.00  0.00     0.005 A 
ATOM      6  C   UNL d   1      32.307  23.556 -18.662  0.00  0.00     0.001 A 
ATOM      7  C   UNL d   1      32.492  23.554 -17.859  0.00  0.00     0.011 A 
ATOM      8  C   UNL d   1      32.955  22.958 -17.535  0.00  0.00     0.058 A 
ATOM      9  C   UNL d   1      33.241  22.353 -18.016  0.00  0.00     0.011 A 
ATOM     10 CL   UNL d   1      33.137  22.965 -16.723  0.00  0.00    -0.082 Cl
ATOM     11  C   UNL d   1      33.056  22.355 -18.818  0.00  0.00     0.001 A 
ENDBRANCH   4   5
ENDBRANCH   1   4
BRANCH   3  12
ATOM     12  C   UNL d   1      32.790  22.590 -21.502  0.00  0.00     0.104 C 
BRANCH  12  13
ATOM     13  C   UNL d   1      33.241  22.251 -22.105  0.00  0.00     0.040 C 
BRANCH  13  14
ATOM     14  C   UNL d   1      33.160  22.539 -22.882  0.00  0.00     0.090 A 
ATOM     15  N   UNL d   1      33.234  22.020 -23.521  0.00  0.00    -0.238 NA
ATOM     16  C   UNL d   1      33.129  22.454 -24.214  0.00  0.00     0.111 A 
ATOM     17  S   UNL d   1      32.990  23.232 -24.007  0.00  0.00    -0.066 SA
ATOM     18  C   UNL d   1      33.156  22.162 -24.990  0.00  0.00     0.028 C 
ATOM     19  C   UNL d   1      33.007  23.296 -23.186  0.00  0.00     0.056 A 
ENDBRANCH  13  14
ENDBRANCH  12  13
ENDBRANCH   3  12
TORSDOF 5
ENDMDL
