MODEL 1
REMARK VINA RESULT:      22.2      0.000      0.000
REMARK  5 active torsions:
REMARK  status: ('A' for Active; 'I' for Inactive)
REMARK    1  A    between atoms: N_9  and  C_1 
REMARK    2  A    between atoms: C_12  and  C_2 
REMARK       I    between atoms: C_13  and  N_9 
REMARK    3  A    between atoms: C_11  and  C_14 
REMARK    4  A    between atoms: O_19  and  C_12 
REMARK    5  A    between atoms: C_14  and  C_13 
ROOT
ATOM      1  C   UNL d   1      13.150  12.443  -3.758  0.00  0.00     0.119 A 
ATOM      2  C   UNL d   1      13.331  13.161  -4.158  0.00  0.00     0.087 A 
ATOM      3  S   UNL d   1      13.020  11.843  -4.309  0.00  0.00    -0.068 SA
ATOM      4  C   UNL d   1      13.308  12.991  -4.953  0.00  0.00     0.013 A 
ATOM      5  C   UNL d   1      13.118  12.181  -5.060  0.00  0.00     0.031 A 
ATOM      6  C   UNL d   1      13.453  13.542  -5.541  0.00  0.00     0.001 C 
ATOM      7  C   UNL d   1      13.040  11.787  -5.780  0.00  0.00     0.007 C 
ENDROOT
BRANCH   1   8
ATOM      8  N   UNL d   1      13.092  12.275  -2.946  0.00  0.00    -0.201 NA
ATOM      9  C   UNL d   1      13.732  11.951  -2.543  0.00  0.00     0.280 C 
ATOM     10  O   UNL d   1      14.452  11.784  -2.942  0.00  0.00    -0.265 OA
BRANCH   9  11
ATOM     11  C   UNL d   1      13.673  11.780  -1.716  0.00  0.00     0.074 C 
BRANCH  11  12
ATOM     12  C   UNL d   1      14.091  12.228  -1.151  0.00  0.00     0.095 A 
ATOM     13  C   UNL d   1      13.866  12.352  -0.388  0.00  0.00     0.287 A 
ATOM     14  N   UNL d   1      14.440  12.825  -0.026  0.00  0.00    -0.181 NA
ATOM     15  O   UNL d   1      13.178  12.062  -0.014  0.00  0.00    -0.265 OA
ATOM     16  C   UNL d   1      15.019  12.980  -0.602  0.00  0.00     0.217 A 
ATOM     17  S   UNL d   1      14.792  12.602  -1.303  0.00  0.00    -0.042 SA
ATOM     18  N   UNL d   1      15.709  13.442  -0.477  0.00  0.00    -0.119 N 
ENDBRANCH  11  12
ENDBRANCH   9  11
ENDBRANCH   1   8
BRANCH   2  19
ATOM     19  C   UNL d   1      13.496  13.886  -3.840  0.00  0.00     0.298 C 
ATOM     20  O   UNL d   1      14.213  14.005  -3.485  0.00  0.00    -0.259 OA
BRANCH  19  21
ATOM     21  O   UNL d   1      12.944  14.482  -3.882  0.00  0.00    -0.296 OA
ATOM     22  C   UNL d   1      13.167  15.258  -3.772  0.00  0.00     0.185 C 
ENDBRANCH  19  21
ENDBRANCH   2  19
TORSDOF 5
ENDMDL
