MODEL 1
REMARK VINA RESULT:      12.6      0.000      0.000
REMARK  1 active torsions:
REMARK  status: ('A' for Active; 'I' for Inactive)
REMARK    1  A    between atoms: C_6  and  C_2 
ROOT
ATOM      1  C   UNL d   1      44.530 -15.467  36.734  0.00  0.00     0.018 A 
ATOM      2  C   UNL d   1      43.814 -15.070  36.867  0.00  0.00     0.002 A 
ATOM      3  C   UNL d   1      43.094 -15.458  36.732  0.00  0.00     0.000 A 
ATOM      4  C   UNL d   1      44.525 -16.237  36.471  0.00  0.00     0.002 A 
ATOM      5  C   UNL d   1      43.089 -16.254  36.461  0.00  0.00     0.000 A 
ATOM      6  C   UNL d   1      43.805 -16.641  36.332  0.00  0.00     0.000 A 
ATOM      7  C   UNL d   1      42.388 -15.061  36.865  0.00  0.00     0.000 A 
ATOM      8  C   UNL d   1      42.379 -16.632  36.330  0.00  0.00     0.000 A 
ATOM      9  C   UNL d   1      41.668 -15.449  36.731  0.00  0.00     0.000 A 
ATOM     10  C   UNL d   1      41.663 -16.220  36.468  0.00  0.00     0.000 A 
ENDROOT
BRANCH   1  11
ATOM     11  C   UNL d   1      45.246 -15.079  36.868  0.00  0.00     0.090 A 
ATOM     12  N   UNL d   1      45.402 -14.343  37.133  0.00  0.00    -0.219 NA
ATOM     13  C   UNL d   1      46.221 -14.248  37.161  0.00  0.00     0.215 A 
ATOM     14  S   UNL d   1      46.550 -14.963  36.899  0.00  0.00    -0.045 SA
ATOM     15  N   UNL d   1      46.644 -13.558  37.407  0.00  0.00    -0.120 N 
ATOM     16  C   UNL d   1      45.951 -15.459  36.725  0.00  0.00     0.058 A 
ENDBRANCH   1  11
TORSDOF 1
ENDMDL
MODEL 2
REMARK VINA RESULT:      12.9      1.990      3.599
REMARK  1 active torsions:
REMARK  status: ('A' for Active; 'I' for Inactive)
REMARK    1  A    between atoms: C_6  and  C_2 
ROOT
ATOM      1  C   UNL d   1      43.874 -15.611  36.577  0.00  0.00     0.018 A 
ATOM      2  C   UNL d   1      44.196 -14.908  36.877  0.00  0.00     0.002 A 
ATOM      3  C   UNL d   1      45.019 -14.818  36.926  0.00  0.00     0.000 A 
ATOM      4  C   UNL d   1      44.365 -16.212  36.332  0.00  0.00     0.002 A 
ATOM      5  C   UNL d   1      45.526 -15.439  36.674  0.00  0.00     0.000 A 
ATOM      6  C   UNL d   1      45.197 -16.134  36.378  0.00  0.00     0.000 A 
ATOM      7  C   UNL d   1      45.333 -14.120  37.223  0.00  0.00     0.000 A 
ATOM      8  C   UNL d   1      46.334 -15.347  36.724  0.00  0.00     0.000 A 
ATOM      9  C   UNL d   1      46.156 -14.030  37.273  0.00  0.00     0.000 A 
ATOM     10  C   UNL d   1      46.647 -14.632  37.029  0.00  0.00     0.000 A 
ENDROOT
BRANCH   1  11
ATOM     11  C   UNL d   1      43.054 -15.699  36.528  0.00  0.00     0.090 A 
ATOM     12  N   UNL d   1      42.601 -16.347  36.430  0.00  0.00    -0.219 NA
ATOM     13  C   UNL d   1      41.811 -16.110  36.421  0.00  0.00     0.215 A 
ATOM     14  S   UNL d   1      41.811 -15.287  36.519  0.00  0.00    -0.045 SA
ATOM     15  N   UNL d   1      41.132 -16.607  36.330  0.00  0.00    -0.120 N 
ATOM     16  C   UNL d   1      42.569 -15.048  36.583  0.00  0.00     0.058 A 
ENDBRANCH   1  11
TORSDOF 1
ENDMDL
MODEL 3
REMARK VINA RESULT:      14.1      7.308      8.168
REMARK  1 active torsions:
REMARK  status: ('A' for Active; 'I' for Inactive)
REMARK    1  A    between atoms: C_6  and  C_2 
ROOT
ATOM      1  C   UNL d   1      45.874 -14.955  44.384  0.00  0.00     0.018 A 
ATOM      2  C   UNL d   1      45.446 -14.551  43.800  0.00  0.00     0.002 A 
ATOM      3  C   UNL d   1      45.437 -13.722  43.793  0.00  0.00     0.000 A 
ATOM      4  C   UNL d   1      46.284 -14.538  44.950  0.00  0.00     0.002 A 
ATOM      5  C   UNL d   1      45.861 -13.291  44.378  0.00  0.00     0.000 A 
ATOM      6  C   UNL d   1      46.283 -13.701  44.954  0.00  0.00     0.000 A 
ATOM      7  C   UNL d   1      45.012 -13.326  43.213  0.00  0.00     0.000 A 
ATOM      8  C   UNL d   1      45.848 -12.476  44.367  0.00  0.00     0.000 A 
ATOM      9  C   UNL d   1      45.002 -12.497  43.206  0.00  0.00     0.000 A 
ATOM     10  C   UNL d   1      45.412 -12.080  43.772  0.00  0.00     0.000 A 
ENDROOT
BRANCH   1  11
ATOM     11  C   UNL d   1      45.882 -15.781  44.389  0.00  0.00     0.090 A 
ATOM     12  N   UNL d   1      46.249 -16.305  43.914  0.00  0.00    -0.219 NA
ATOM     13  C   UNL d   1      46.063 -17.065  44.176  0.00  0.00     0.215 A 
ATOM     14  S   UNL d   1      45.565 -16.972  44.832  0.00  0.00    -0.045 SA
ATOM     15  N   UNL d   1      46.327 -17.796  43.842  0.00  0.00    -0.120 N 
ATOM     16  C   UNL d   1      45.462 -16.191  44.953  0.00  0.00     0.058 A 
ENDBRANCH   1  11
TORSDOF 1
ENDMDL
MODEL 4
REMARK VINA RESULT:      14.3      7.609      8.099
REMARK  1 active torsions:
REMARK  status: ('A' for Active; 'I' for Inactive)
REMARK    1  A    between atoms: C_6  and  C_2 
ROOT
ATOM      1  C   UNL d   1      46.003 -17.034  44.304  0.00  0.00     0.018 A 
ATOM      2  C   UNL d   1      46.102 -17.281  43.519  0.00  0.00     0.002 A 
ATOM      3  C   UNL d   1      46.281 -18.074  43.354  0.00  0.00     0.000 A 
ATOM      4  C   UNL d   1      46.080 -17.569  44.913  0.00  0.00     0.002 A 
ATOM      5  C   UNL d   1      46.361 -18.627  43.982  0.00  0.00     0.000 A 
ATOM      6  C   UNL d   1      46.260 -18.373  44.760  0.00  0.00     0.000 A 
ATOM      7  C   UNL d   1      46.379 -18.314  42.575  0.00  0.00     0.000 A 
ATOM      8  C   UNL d   1      46.536 -19.406  43.816  0.00  0.00     0.000 A 
ATOM      9  C   UNL d   1      46.557 -19.107  42.410  0.00  0.00     0.000 A 
ATOM     10  C   UNL d   1      46.634 -19.642  43.019  0.00  0.00     0.000 A 
ENDROOT
BRANCH   1  11
ATOM     11  C   UNL d   1      45.825 -16.244  44.467  0.00  0.00     0.090 A 
ATOM     12  N   UNL d   1      46.223 -15.573  44.306  0.00  0.00    -0.219 NA
ATOM     13  C   UNL d   1      45.786 -14.937  44.597  0.00  0.00     0.215 A 
ATOM     14  S   UNL d   1      45.104 -15.259  44.941  0.00  0.00    -0.045 SA
ATOM     15  N   UNL d   1      45.991 -14.118  44.553  0.00  0.00    -0.120 N 
ATOM     16  C   UNL d   1      45.137 -16.051  44.857  0.00  0.00     0.058 A 
ENDBRANCH   1  11
TORSDOF 1
ENDMDL
