MODEL 1
REMARK VINA RESULT:     102.5      0.000      0.000
REMARK  5 active torsions:
REMARK  status: ('A' for Active; 'I' for Inactive)
REMARK    1  A    between atoms: C_7  and  C_1 
REMARK    2  A    between atoms: N_8  and  C_7 
REMARK    3  A    between atoms: C_9  and  N_8 
REMARK    4  A    between atoms: O_17  and  C_13 
REMARK    5  A    between atoms: O_20  and  C_15 
ROOT
ATOM      1  C   UNL d   1      60.140  49.616  51.420  0.00  0.00     0.145 A 
ATOM      2  C   UNL d   1      60.245  49.596  52.239  0.00  0.00     0.305 A 
ATOM      3  C   UNL d   1      59.382  49.651  51.102  0.00  0.00     0.305 A 
ATOM      4  O   UNL d   1      58.727  49.667  51.601  0.00  0.00    -0.269 OA
ATOM      5  O   UNL d   1      59.590  49.611  52.728  0.00  0.00    -0.269 OA
ATOM      6  C   UNL d   1      58.832  49.647  52.410  0.00  0.00     0.242 A 
ATOM      7  O   UNL d   1      59.272  49.672  50.274  0.00  0.00    -0.259 OA
ATOM      8  O   UNL d   1      61.003  49.560  52.557  0.00  0.00    -0.259 OA
ATOM      9  C   UNL d   1      58.333  49.679  51.756  0.00  0.00     0.035 A 
ATOM     10  C   UNL d   1      58.509  49.644  53.180  0.00  0.00     0.035 A 
ATOM     11  C   UNL d   1      57.691  49.673  53.284  0.00  0.00     0.001 A 
ATOM     12  C   UNL d   1      57.517  49.708  51.858  0.00  0.00     0.001 A 
ATOM     13  C   UNL d   1      57.193  49.705  52.627  0.00  0.00    -0.000 A 
ENDROOT
BRANCH   1  14
ATOM     14  C   UNL d   1      60.800  49.600  50.916  0.00  0.00     0.110 C 
BRANCH  14  15
ATOM     15  N   UNL d   1      60.763  49.194  50.198  0.00  0.00    -0.242 NA
BRANCH  15  16
ATOM     16  C   UNL d   1      61.246  48.537  50.074  0.00  0.00     0.106 A 
ATOM     17  C   UNL d   1      60.935  47.778  50.137  0.00  0.00     0.045 A 
ATOM     18  C   UNL d   1      61.412  47.125  50.014  0.00  0.00     0.096 A 
ATOM     19  C   UNL d   1      62.219  47.227  49.825  0.00  0.00     0.026 A 
ATOM     20  C   UNL d   1      62.529  47.986  49.763  0.00  0.00     0.028 A 
ATOM     21  C   UNL d   1      62.043  48.644  49.888  0.00  0.00     0.112 A 
BRANCH  18  22
ATOM     22  O   UNL d   1      61.099  46.369  50.077  0.00  0.00    -0.328 OA
ATOM     23  C   UNL d   1      60.842  46.084  50.807  0.00  0.00     0.181 C 
ENDBRANCH  18  22
BRANCH  21  24
ATOM     24  O   UNL d   1      62.354  49.404  49.825  0.00  0.00    -0.327 OA
ATOM     25  C   UNL d   1      63.095  49.519  49.496  0.00  0.00     0.181 C 
ENDBRANCH  21  24
ENDBRANCH  15  16
ENDBRANCH  14  15
ENDBRANCH   1  14
TORSDOF 5
ENDMDL
