MODEL 1
REMARK VINA RESULT:      -1.6      0.000      0.000
REMARK  2 active torsions:
REMARK  status: ('A' for Active; 'I' for Inactive)
REMARK    1  A    between atoms: N_4  and  C_2 
REMARK       I    between atoms: C_3  and  N_4 
REMARK    2  A    between atoms: C_5  and  C_3 
ROOT
ATOM      1  C   UNL d   1      58.438   0.038  29.020  0.00  0.00     0.282 C 
ATOM      2  N   UNL d   1      58.433  -0.672  28.597  0.00  0.00    -0.182 NA
ATOM      3  O   UNL d   1      57.825   0.581  28.906  0.00  0.00    -0.265 OA
ENDROOT
BRANCH   1   4
ATOM      4  C   UNL d   1      59.055   0.192  29.549  0.00  0.00     0.069 A 
ATOM      5  C   UNL d   1      58.878   0.302  30.341  0.00  0.00     0.063 A 
ATOM      6  C   UNL d   1      59.491   0.456  30.873  0.00  0.00     0.023 A 
ATOM      7 CL   UNL d   1      58.108   0.263  30.614  0.00  0.00    -0.082 Cl
ATOM      8  C   UNL d   1      60.271   0.497  30.602  0.00  0.00     0.059 A 
ATOM      9  C   UNL d   1      60.435   0.385  29.808  0.00  0.00     0.012 A 
ATOM     10 CL   UNL d   1      60.889   0.653  31.148  0.00  0.00    -0.082 Cl
ATOM     11  C   UNL d   1      59.820   0.233  29.287  0.00  0.00     0.006 A 
ENDBRANCH   1   4
BRANCH   2  12
ATOM     12  C   UNL d   1      59.039  -1.218  28.705  0.00  0.00     0.204 A 
ATOM     13  N   UNL d   1      58.965  -1.955  29.075  0.00  0.00    -0.203 NA
ATOM     14  C   UNL d   1      59.710  -2.328  29.066  0.00  0.00     0.174 A 
ATOM     15  S   UNL d   1      60.234  -1.806  28.687  0.00  0.00    -0.018 SA
ATOM     16  S   UNL d   1      59.889  -3.071  29.375  0.00  0.00    -0.050 SA
ATOM     17  S   UNL d   1      59.812  -1.097  28.455  0.00  0.00    -0.010 SA
ENDBRANCH   2  12
TORSDOF 2
ENDMDL
MODEL 2
REMARK VINA RESULT:      -1.6      1.095      1.343
REMARK  2 active torsions:
REMARK  status: ('A' for Active; 'I' for Inactive)
REMARK    1  A    between atoms: N_4  and  C_2 
REMARK       I    between atoms: C_3  and  N_4 
REMARK    2  A    between atoms: C_5  and  C_3 
ROOT
ATOM      1  C   UNL d   1      58.418  -1.075  29.630  0.00  0.00     0.282 C 
ATOM      2  N   UNL d   1      58.429  -1.898  29.552  0.00  0.00    -0.182 NA
ATOM      3  O   UNL d   1      57.736  -0.704  29.914  0.00  0.00    -0.265 OA
ENDROOT
BRANCH   1   4
ATOM      4  C   UNL d   1      59.091  -0.639  29.423  0.00  0.00     0.069 A 
ATOM      5  C   UNL d   1      59.458  -0.184  29.997  0.00  0.00     0.063 A 
ATOM      6  C   UNL d   1      60.129   0.253  29.796  0.00  0.00     0.023 A 
ATOM      7 CL   UNL d   1      59.172  -0.155  30.764  0.00  0.00    -0.082 Cl
ATOM      8  C   UNL d   1      60.420   0.227  29.023  0.00  0.00     0.059 A 
ATOM      9  C   UNL d   1      60.045  -0.231  28.458  0.00  0.00     0.012 A 
ATOM     10 CL   UNL d   1      61.103   0.674  28.825  0.00  0.00    -0.082 Cl
ATOM     11  C   UNL d   1      59.379  -0.662  28.668  0.00  0.00     0.006 A 
ENDBRANCH   1   4
BRANCH   2  12
ATOM     12  C   UNL d   1      59.103  -2.275  29.271  0.00  0.00     0.204 A 
ATOM     13  N   UNL d   1      59.711  -2.589  29.738  0.00  0.00    -0.203 NA
ATOM     14  C   UNL d   1      60.285  -2.919  29.231  0.00  0.00     0.174 A 
ATOM     15  S   UNL d   1      60.017  -2.798  28.455  0.00  0.00    -0.018 SA
ATOM     16  S   UNL d   1      60.984  -3.291  29.461  0.00  0.00    -0.050 SA
ATOM     17  S   UNL d   1      59.265  -2.389  28.473  0.00  0.00    -0.010 SA
ENDBRANCH   2  12
TORSDOF 2
ENDMDL
MODEL 3
REMARK VINA RESULT:      -1.5      1.765      2.402
REMARK  2 active torsions:
REMARK  status: ('A' for Active; 'I' for Inactive)
REMARK    1  A    between atoms: N_4  and  C_2 
REMARK       I    between atoms: C_3  and  N_4 
REMARK    2  A    between atoms: C_5  and  C_3 
ROOT
ATOM      1  C   UNL d   1      59.110  -1.573  28.760  0.00  0.00     0.282 C 
ATOM      2  N   UNL d   1      59.902  -1.380  28.618  0.00  0.00    -0.182 NA
ATOM      3  O   UNL d   1      58.812  -2.291  28.478  0.00  0.00    -0.265 OA
ENDROOT
BRANCH   1   4
ATOM      4  C   UNL d   1      58.632  -1.045  29.182  0.00  0.00     0.069 A 
ATOM      5  C   UNL d   1      58.328  -1.279  29.905  0.00  0.00     0.063 A 
ATOM      6  C   UNL d   1      57.851  -0.756  30.330  0.00  0.00     0.023 A 
ATOM      7 CL   UNL d   1      58.488  -2.020  30.214  0.00  0.00    -0.082 Cl
ATOM      8  C   UNL d   1      57.686  -0.007  30.022  0.00  0.00     0.059 A 
ATOM      9  C   UNL d   1      57.996   0.216  29.297  0.00  0.00     0.012 A 
ATOM     10 CL   UNL d   1      57.201   0.520  30.458  0.00  0.00    -0.082 Cl
ATOM     11  C   UNL d   1      58.469  -0.311  28.883  0.00  0.00     0.006 A 
ENDBRANCH   1   4
BRANCH   2  12
ATOM     12  C   UNL d   1      60.206  -0.668  28.895  0.00  0.00     0.204 A 
ATOM     13  N   UNL d   1      60.539  -0.544  29.643  0.00  0.00    -0.203 NA
ATOM     14  C   UNL d   1      60.776   0.254  29.694  0.00  0.00     0.174 A 
ATOM     15  S   UNL d   1      60.581   0.608  28.969  0.00  0.00    -0.018 SA
ATOM     16  S   UNL d   1      61.133   0.617  30.342  0.00  0.00    -0.050 SA
ATOM     17  S   UNL d   1      60.218   0.026  28.455  0.00  0.00    -0.010 SA
ENDBRANCH   2  12
TORSDOF 2
ENDMDL
MODEL 4
REMARK VINA RESULT:      -0.9      9.461     10.288
REMARK  2 active torsions:
REMARK  status: ('A' for Active; 'I' for Inactive)
REMARK    1  A    between atoms: N_4  and  C_2 
REMARK       I    between atoms: C_3  and  N_4 
REMARK    2  A    between atoms: C_5  and  C_3 
ROOT
ATOM      1  C   UNL d   1      60.543  -9.377  34.397  0.00  0.00     0.282 C 
ATOM      2  N   UNL d   1      60.754  -8.842  34.991  0.00  0.00    -0.182 NA
ATOM      3  O   UNL d   1      61.133  -9.815  34.019  0.00  0.00    -0.265 OA
ENDROOT
BRANCH   1   4
ATOM      4  C   UNL d   1      59.746  -9.464  34.193  0.00  0.00     0.069 A 
ATOM      5  C   UNL d   1      59.511  -9.276  33.431  0.00  0.00     0.063 A 
ATOM      6  C   UNL d   1      58.716  -9.362  33.222  0.00  0.00     0.023 A 
ATOM      7 CL   UNL d   1      60.048  -9.007  32.875  0.00  0.00    -0.082 Cl
ATOM      8  C   UNL d   1      58.171  -9.633  33.780  0.00  0.00     0.059 A 
ATOM      9  C   UNL d   1      58.418  -9.817  34.539  0.00  0.00     0.012 A 
ATOM     10 CL   UNL d   1      57.365  -9.717  33.562  0.00  0.00    -0.082 Cl
ATOM     11  C   UNL d   1      59.209  -9.729  34.737  0.00  0.00     0.006 A 
ENDBRANCH   1   4
BRANCH   2  12
ATOM     12  C   UNL d   1      60.172  -8.403  35.372  0.00  0.00     0.204 A 
ATOM     13  N   UNL d   1      59.890  -7.663  35.131  0.00  0.00    -0.203 NA
ATOM     14  C   UNL d   1      59.305  -7.417  35.672  0.00  0.00     0.174 A 
ATOM     15  S   UNL d   1      59.239  -8.018  36.242  0.00  0.00    -0.018 SA
ATOM     16  S   UNL d   1      58.878  -6.712  35.644  0.00  0.00    -0.050 SA
ATOM     17  S   UNL d   1      59.788  -8.648  36.056  0.00  0.00    -0.010 SA
ENDBRANCH   2  12
TORSDOF 2
ENDMDL
MODEL 5
REMARK VINA RESULT:      -0.7      2.045      2.811
REMARK  2 active torsions:
REMARK  status: ('A' for Active; 'I' for Inactive)
REMARK    1  A    between atoms: N_4  and  C_2 
REMARK       I    between atoms: C_3  and  N_4 
REMARK    2  A    between atoms: C_5  and  C_3 
ROOT
ATOM      1  C   UNL d   1      58.439  -1.396  29.784  0.00  0.00     0.282 C 
ATOM      2  N   UNL d   1      58.447  -0.570  29.739  0.00  0.00    -0.182 NA
ATOM      3  O   UNL d   1      57.807  -1.775  30.157  0.00  0.00    -0.265 OA
ENDROOT
BRANCH   1   4
ATOM      4  C   UNL d   1      59.065  -1.826  29.455  0.00  0.00     0.069 A 
ATOM      5  C   UNL d   1      58.912  -2.325  28.823  0.00  0.00     0.063 A 
ATOM      6  C   UNL d   1      59.533  -2.757  28.491  0.00  0.00     0.023 A 
ATOM      7 CL   UNL d   1      58.157  -2.402  28.516  0.00  0.00    -0.082 Cl
ATOM      8  C   UNL d   1      60.296  -2.682  28.798  0.00  0.00     0.059 A 
ATOM      9  C   UNL d   1      60.437  -2.180  29.430  0.00  0.00     0.012 A 
ATOM     10 CL   UNL d   1      60.923  -3.123  28.457  0.00  0.00    -0.082 Cl
ATOM     11  C   UNL d   1      59.814  -1.756  29.753  0.00  0.00     0.006 A 
ENDBRANCH   1   4
BRANCH   2  12
ATOM     12  C   UNL d   1      59.073  -0.186  29.370  0.00  0.00     0.204 A 
ATOM     13  N   UNL d   1      59.796   0.008  29.722  0.00  0.00    -0.203 NA
ATOM     14  C   UNL d   1      60.270   0.392  29.154  0.00  0.00     0.174 A 
ATOM     15  S   UNL d   1      59.822   0.427  28.455  0.00  0.00    -0.018 SA
ATOM     16  S   UNL d   1      61.034   0.679  29.267  0.00  0.00    -0.050 SA
ATOM     17  S   UNL d   1      59.059   0.061  28.586  0.00  0.00    -0.010 SA
ENDBRANCH   2  12
TORSDOF 2
ENDMDL
MODEL 6
REMARK VINA RESULT:      -0.4      2.164      2.604
REMARK  2 active torsions:
REMARK  status: ('A' for Active; 'I' for Inactive)
REMARK    1  A    between atoms: N_4  and  C_2 
REMARK       I    between atoms: C_3  and  N_4 
REMARK    2  A    between atoms: C_5  and  C_3 
ROOT
ATOM      1  C   UNL d   1      58.063   0.431  29.256  0.00  0.00     0.282 C 
ATOM      2  N   UNL d   1      57.396   0.396  29.744  0.00  0.00    -0.182 NA
ATOM      3  O   UNL d   1      57.975   0.661  28.467  0.00  0.00    -0.265 OA
ENDROOT
BRANCH   1   4
ATOM      4  C   UNL d   1      58.804   0.234  29.567  0.00  0.00     0.069 A 
ATOM      5  C   UNL d   1      59.196  -0.421  29.268  0.00  0.00     0.063 A 
ATOM      6  C   UNL d   1      59.936  -0.622  29.575  0.00  0.00     0.023 A 
ATOM      7 CL   UNL d   1      58.868  -0.878  28.674  0.00  0.00    -0.082 Cl
ATOM      8  C   UNL d   1      60.271  -0.163  30.175  0.00  0.00     0.059 A 
ATOM      9  C   UNL d   1      59.870   0.489  30.465  0.00  0.00     0.012 A 
ATOM     10 CL   UNL d   1      61.023  -0.372  30.482  0.00  0.00    -0.082 Cl
ATOM     11  C   UNL d   1      59.135   0.681  30.154  0.00  0.00     0.006 A 
ENDBRANCH   1   4
BRANCH   2  12
ATOM     12  C   UNL d   1      57.475   0.168  30.530  0.00  0.00     0.204 A 
ATOM     13  N   UNL d   1      57.538   0.680  31.178  0.00  0.00    -0.203 NA
ATOM     14  C   UNL d   1      57.608   0.219  31.869  0.00  0.00     0.174 A 
ATOM     15  S   UNL d   1      57.587  -0.576  31.630  0.00  0.00    -0.018 SA
ATOM     16  S   UNL d   1      57.684   0.502  32.640  0.00  0.00    -0.050 SA
ATOM     17  S   UNL d   1      57.503  -0.615  30.778  0.00  0.00    -0.010 SA
ENDBRANCH   2  12
TORSDOF 2
ENDMDL
MODEL 7
REMARK VINA RESULT:      -0.0      2.416      3.110
REMARK  2 active torsions:
REMARK  status: ('A' for Active; 'I' for Inactive)
REMARK    1  A    between atoms: N_4  and  C_2 
REMARK       I    between atoms: C_3  and  N_4 
REMARK    2  A    between atoms: C_5  and  C_3 
ROOT
ATOM      1  C   UNL d   1      59.545   0.281  30.232  0.00  0.00     0.282 C 
ATOM      2  N   UNL d   1      59.074   0.682  30.781  0.00  0.00    -0.182 NA
ATOM      3  O   UNL d   1      60.323   0.531  30.108  0.00  0.00    -0.265 OA
ENDROOT
BRANCH   1   4
ATOM      4  C   UNL d   1      59.230  -0.363  29.818  0.00  0.00     0.069 A 
ATOM      5  C   UNL d   1      59.184  -0.322  29.002  0.00  0.00     0.063 A 
ATOM      6  C   UNL d   1      58.870  -0.962  28.584  0.00  0.00     0.023 A 
ATOM      7 CL   UNL d   1      59.443   0.338  28.593  0.00  0.00    -0.082 Cl
ATOM      8  C   UNL d   1      58.607  -1.631  28.992  0.00  0.00     0.059 A 
ATOM      9  C   UNL d   1      58.658  -1.659  29.809  0.00  0.00     0.012 A 
ATOM     10 CL   UNL d   1      58.289  -2.277  28.562  0.00  0.00    -0.082 Cl
ATOM     11  C   UNL d   1      58.971  -1.019  30.215  0.00  0.00     0.006 A 
ENDBRANCH   1   4
BRANCH   2  12
ATOM     12  C   UNL d   1      58.299   0.439  30.909  0.00  0.00     0.204 A 
ATOM     13  N   UNL d   1      58.046  -0.074  31.508  0.00  0.00    -0.203 NA
ATOM     14  C   UNL d   1      57.221  -0.171  31.439  0.00  0.00     0.174 A 
ATOM     15  S   UNL d   1      56.980   0.288  30.791  0.00  0.00    -0.018 SA
ATOM     16  S   UNL d   1      56.741  -0.636  31.922  0.00  0.00    -0.050 SA
ATOM     17  S   UNL d   1      57.661   0.679  30.449  0.00  0.00    -0.010 SA
ENDBRANCH   2  12
TORSDOF 2
ENDMDL
MODEL 8
REMARK VINA RESULT:       0.3      1.084      1.654
REMARK  2 active torsions:
REMARK  status: ('A' for Active; 'I' for Inactive)
REMARK    1  A    between atoms: N_4  and  C_2 
REMARK       I    between atoms: C_3  and  N_4 
REMARK    2  A    between atoms: C_5  and  C_3 
ROOT
ATOM      1  C   UNL d   1      60.176   0.040  28.878  0.00  0.00     0.282 C 
ATOM      2  N   UNL d   1      60.294  -0.685  28.497  0.00  0.00    -0.182 NA
ATOM      3  O   UNL d   1      60.658   0.682  28.683  0.00  0.00    -0.265 OA
ENDROOT
BRANCH   1   4
ATOM      4  C   UNL d   1      59.577   0.108  29.445  0.00  0.00     0.069 A 
ATOM      5  C   UNL d   1      59.787   0.249  30.224  0.00  0.00     0.063 A 
ATOM      6  C   UNL d   1      59.194   0.318  30.795  0.00  0.00     0.023 A 
ATOM      7 CL   UNL d   1      60.571   0.322  30.447  0.00  0.00    -0.082 Cl
ATOM      8  C   UNL d   1      58.401   0.245  30.575  0.00  0.00     0.059 A 
ATOM      9  C   UNL d   1      58.204   0.104  29.792  0.00  0.00     0.012 A 
ATOM     10 CL   UNL d   1      57.802   0.316  31.159  0.00  0.00    -0.082 Cl
ATOM     11  C   UNL d   1      58.800   0.037  29.233  0.00  0.00     0.006 A 
ENDBRANCH   1   4
BRANCH   2  12
ATOM     12  C   UNL d   1      59.818  -1.329  28.686  0.00  0.00     0.204 A 
ATOM     13  N   UNL d   1      60.051  -1.989  29.126  0.00  0.00    -0.203 NA
ATOM     14  C   UNL d   1      59.401  -2.507  29.186  0.00  0.00     0.174 A 
ATOM     15  S   UNL d   1      58.773  -2.150  28.776  0.00  0.00    -0.018 SA
ATOM     16  S   UNL d   1      59.387  -3.233  29.578  0.00  0.00    -0.050 SA
ATOM     17  S   UNL d   1      59.032  -1.400  28.455  0.00  0.00    -0.010 SA
ENDBRANCH   2  12
TORSDOF 2
ENDMDL
MODEL 9
REMARK VINA RESULT:       0.5      9.029      9.762
REMARK  2 active torsions:
REMARK  status: ('A' for Active; 'I' for Inactive)
REMARK    1  A    between atoms: N_4  and  C_2 
REMARK       I    between atoms: C_3  and  N_4 
REMARK    2  A    between atoms: C_5  and  C_3 
ROOT
ATOM      1  C   UNL d   1      59.130  -7.652  34.843  0.00  0.00     0.282 C 
ATOM      2  N   UNL d   1      58.846  -7.813  34.083  0.00  0.00    -0.182 NA
ATOM      3  O   UNL d   1      58.911  -6.947  35.215  0.00  0.00    -0.265 OA
ENDROOT
BRANCH   1   4
ATOM      4  C   UNL d   1      59.628  -8.198  35.215  0.00  0.00     0.069 A 
ATOM      5  C   UNL d   1      60.395  -7.975  35.393  0.00  0.00     0.063 A 
ATOM      6  C   UNL d   1      60.896  -8.517  35.765  0.00  0.00     0.023 A 
ATOM      7 CL   UNL d   1      60.674  -7.228  35.210  0.00  0.00    -0.082 Cl
ATOM      8  C   UNL d   1      60.619  -9.272  35.952  0.00  0.00     0.059 A 
ATOM      9  C   UNL d   1      59.849  -9.484  35.769  0.00  0.00     0.012 A 
ATOM     10 CL   UNL d   1      61.133  -9.818  36.329  0.00  0.00    -0.082 Cl
ATOM     11  C   UNL d   1      59.360  -8.939  35.400  0.00  0.00     0.006 A 
ENDBRANCH   1   4
BRANCH   2  12
ATOM     12  C   UNL d   1      59.059  -8.512  33.706  0.00  0.00     0.204 A 
ATOM     13  N   UNL d   1      59.773  -8.649  33.311  0.00  0.00    -0.203 NA
ATOM     14  C   UNL d   1      59.761  -9.427  33.010  0.00  0.00     0.174 A 
ATOM     15  S   UNL d   1      59.031  -9.756  33.230  0.00  0.00    -0.018 SA
ATOM     16  S   UNL d   1      60.361  -9.794  32.579  0.00  0.00    -0.050 SA
ATOM     17  S   UNL d   1      58.580  -9.179  33.673  0.00  0.00    -0.010 SA
ENDBRANCH   2  12
TORSDOF 2
ENDMDL
