MODEL 1
REMARK VINA RESULT:      36.3      0.000      0.000
REMARK  1 active torsions:
REMARK  status: ('A' for Active; 'I' for Inactive)
REMARK    1  A    between atoms: N_2  and  C_1 
ROOT
ATOM      1  C   UNL d   1      13.580  12.434  -2.577  0.00  0.00     0.110 A 
ATOM      2  C   UNL d   1      14.384  12.417  -2.340  0.00  0.00     0.212 A 
ATOM      3  C   UNL d   1      12.985  12.246  -2.030  0.00  0.00     0.056 A 
ATOM      4  C   UNL d   1      14.577  12.213  -1.569  0.00  0.00     0.046 A 
ATOM      5  S   UNL d   1      13.195  12.040  -1.246  0.00  0.00    -0.085 SA
ATOM      6  C   UNL d   1      13.987  12.024  -1.017  0.00  0.00     0.033 A 
ATOM      7  O   UNL d   1      14.974  12.604  -2.882  0.00  0.00    -0.285 OA
ATOM      8  C   UNL d   1      15.366  12.195  -1.333  0.00  0.00     0.004 A 
ATOM      9  C   UNL d   1      14.185  11.821  -0.246  0.00  0.00     0.007 A 
ATOM     10  C   UNL d   1      15.570  11.993  -0.564  0.00  0.00     0.000 A 
ATOM     11  C   UNL d   1      14.976  11.805  -0.017  0.00  0.00     0.001 A 
ENDROOT
BRANCH   1  12
ATOM     12  N   UNL d   1      13.377  12.638  -3.353  0.00  0.00    -0.301 N 
ATOM     13  C   UNL d   1      13.505  12.112  -3.961  0.00  0.00     0.080 A 
ATOM     14  C   UNL d   1      13.304  12.312  -4.740  0.00  0.00     0.018 A 
ATOM     15  C   UNL d   1      13.433  11.781  -5.351  0.00  0.00     0.002 A 
ATOM     16  C   UNL d   1      12.973  13.049  -4.898  0.00  0.00     0.003 A 
ATOM     17  C   UNL d   1      13.232  11.983  -6.126  0.00  0.00     0.000 A 
ATOM     18  C   UNL d   1      12.900  12.722  -6.285  0.00  0.00     0.000 A 
ATOM     19  C   UNL d   1      12.770  13.257  -5.667  0.00  0.00     0.000 A 
ATOM     20  C   UNL d   1      12.840  13.594  -4.278  0.00  0.00     0.019 A 
ATOM     21  C   UNL d   1      13.044  13.381  -3.512  0.00  0.00     0.080 A 
ENDBRANCH   1  12
TORSDOF 1
ENDMDL
MODEL 2
REMARK VINA RESULT:      39.1      1.694      2.017
REMARK  1 active torsions:
REMARK  status: ('A' for Active; 'I' for Inactive)
REMARK    1  A    between atoms: N_2  and  C_1 
ROOT
ATOM      1  C   UNL d   1      14.323  13.167  -1.995  0.00  0.00     0.110 A 
ATOM      2  C   UNL d   1      14.422  13.999  -1.953  0.00  0.00     0.212 A 
ATOM      3  C   UNL d   1      14.616  12.685  -1.387  0.00  0.00     0.056 A 
ATOM      4  C   UNL d   1      14.809  14.329  -1.309  0.00  0.00     0.046 A 
ATOM      5  S   UNL d   1      15.008  13.035  -0.736  0.00  0.00    -0.085 SA
ATOM      6  C   UNL d   1      15.104  13.854  -0.698  0.00  0.00     0.033 A 
ATOM      7  O   UNL d   1      14.131  14.476  -2.556  0.00  0.00    -0.285 OA
ATOM      8  C   UNL d   1      14.908  15.146  -1.264  0.00  0.00     0.004 A 
ATOM      9  C   UNL d   1      15.490  14.189  -0.055  0.00  0.00     0.007 A 
ATOM     10  C   UNL d   1      15.293  15.488  -0.625  0.00  0.00     0.000 A 
ATOM     11  C   UNL d   1      15.586  15.007  -0.017  0.00  0.00     0.001 A 
ENDROOT
BRANCH   1  12
ATOM     12  N   UNL d   1      13.934  12.825  -2.641  0.00  0.00    -0.301 N 
ATOM     13  C   UNL d   1      13.979  13.173  -3.376  0.00  0.00     0.080 A 
ATOM     14  C   UNL d   1      13.591  12.835  -4.026  0.00  0.00     0.018 A 
ATOM     15  C   UNL d   1      13.637  13.186  -4.766  0.00  0.00     0.002 A 
ATOM     16  C   UNL d   1      13.158  12.143  -3.926  0.00  0.00     0.003 A 
ATOM     17  C   UNL d   1      13.250  12.847  -5.412  0.00  0.00     0.000 A 
ATOM     18  C   UNL d   1      12.815  12.153  -5.311  0.00  0.00     0.000 A 
ATOM     19  C   UNL d   1      12.769  11.799  -4.565  0.00  0.00     0.000 A 
ATOM     20  C   UNL d   1      13.108  11.781  -3.175  0.00  0.00     0.019 A 
ATOM     21  C   UNL d   1      13.497  12.128  -2.540  0.00  0.00     0.080 A 
ENDBRANCH   1  12
TORSDOF 1
ENDMDL
