MODEL 1
REMARK VINA RESULT:      61.2      0.000      0.000
REMARK  10 active torsions:
REMARK  status: ('A' for Active; 'I' for Inactive)
REMARK    1  A    between atoms: C_2  and  S_1 
REMARK    2  A    between atoms: N_3  and  S_1 
REMARK    3  A    between atoms: C_19  and  N_3 
REMARK    4  A    between atoms: C_4  and  C_8 
REMARK       I    between atoms: N_14  and  C_4 
REMARK    5  A    between atoms: O_27  and  C_7 
REMARK    6  A    between atoms: O_28  and  C_11 
REMARK    7  A    between atoms: C_29  and  N_14 
REMARK    8  A    between atoms: C_22  and  C_19 
REMARK    9  A    between atoms: C_21  and  C_30 
REMARK   10  A    between atoms: C_30  and  C_29 
ROOT
ATOM      1  C   UNL d   1     -49.163  28.045  35.041  0.00  0.00     0.058 A 
ATOM      2  C   UNL d   1     -49.109  28.024  34.223  0.00  0.00     0.005 A 
ATOM      3  C   UNL d   1     -49.746  27.590  35.424  0.00  0.00     0.005 A 
ATOM      4  C   UNL d   1     -50.208  27.103  34.166  0.00  0.00     0.020 A 
ATOM      5  C   UNL d   1     -49.635  27.550  33.783  0.00  0.00     0.002 A 
ATOM      6  C   UNL d   1     -50.265  27.121  34.982  0.00  0.00     0.002 A 
ENDROOT
BRANCH   1   7
ATOM      7  C   UNL d   1     -48.651  28.509  35.480  0.00  0.00     0.279 C 
ATOM      8  O   UNL d   1     -48.691  28.496  36.308  0.00  0.00    -0.265 OA
ATOM      9  N   UNL d   1     -48.098  28.985  35.103  0.00  0.00    -0.206 NA
BRANCH   9  10
ATOM     10  C   UNL d   1     -47.583  29.450  35.549  0.00  0.00     0.102 C 
BRANCH  10  11
ATOM     11  C   UNL d   1     -47.816  30.199  35.773  0.00  0.00     0.021 C 
BRANCH  11  12
ATOM     12  C   UNL d   1     -47.817  30.801  35.226  0.00  0.00     0.004 A 
ATOM     13  C   UNL d   1     -47.877  31.589  35.466  0.00  0.00     0.026 A 
ATOM     14  C   UNL d   1     -47.877  32.186  34.910  0.00  0.00     0.116 A 
ATOM     15  C   UNL d   1     -47.817  32.002  34.099  0.00  0.00     0.116 A 
ATOM     16  C   UNL d   1     -47.759  31.227  33.860  0.00  0.00     0.026 A 
ATOM     17  C   UNL d   1     -47.758  30.621  34.424  0.00  0.00     0.002 A 
BRANCH  14  18
ATOM     18  O   UNL d   1     -47.937  32.973  35.153  0.00  0.00    -0.326 OA
ATOM     19  C   UNL d   1     -48.603  33.356  35.567  0.00  0.00     0.181 C 
ENDBRANCH  14  18
BRANCH  15  20
ATOM     20  O   UNL d   1     -47.816  32.583  33.535  0.00  0.00    -0.326 OA
ATOM     21  C   UNL d   1     -47.155  33.037  33.414  0.00  0.00     0.181 C 
ENDBRANCH  15  20
ENDBRANCH  11  12
ENDBRANCH  10  11
ENDBRANCH   9  10
ENDBRANCH   1   7
BRANCH   4  22
ATOM     22  C   UNL d   1     -50.727  26.633  33.724  0.00  0.00     0.112 C 
BRANCH  22  23
ATOM     23  N   UNL d   1     -50.453  25.953  33.372  0.00  0.00    -0.157 NA
BRANCH  23  24
ATOM     24  S   UNL d   1     -50.930  25.270  33.356  0.00  0.00     0.285 S 
ATOM     25  O   UNL d   1     -50.253  24.801  33.340  0.00  0.00    -0.198 OA
ATOM     26  O   UNL d   1     -51.605  25.745  33.373  0.00  0.00    -0.198 OA
BRANCH  24  27
ATOM     27  C   UNL d   1     -51.408  24.604  33.341  0.00  0.00     0.105 A 
ATOM     28  C   UNL d   1     -51.078  23.859  33.321  0.00  0.00     0.012 A 
ATOM     29  C   UNL d   1     -51.563  23.188  33.306  0.00  0.00     0.001 A 
ATOM     30  C   UNL d   1     -50.250  23.781  33.316  0.00  0.00     0.001 C 
ATOM     31  C   UNL d   1     -52.388  23.271  33.312  0.00  0.00     0.000 A 
ATOM     32  C   UNL d   1     -52.724  24.028  33.332  0.00  0.00     0.001 A 
ATOM     33  C   UNL d   1     -52.234  24.700  33.347  0.00  0.00     0.013 A 
ATOM     34  C   UNL d   1     -53.541  24.116  33.337  0.00  0.00     0.000 C 
ENDBRANCH  24  27
ENDBRANCH  23  24
ENDBRANCH  22  23
ENDBRANCH   4  22
TORSDOF 10
ENDMDL
