MODEL 1
REMARK VINA RESULT:      52.0      0.000      0.000
REMARK  5 active torsions:
REMARK  status: ('A' for Active; 'I' for Inactive)
REMARK    1  A    between atoms: C_14  and  N_1 
REMARK    2  A    between atoms: C_13  and  C_3 
REMARK    3  A    between atoms: C_4  and  S_11 
REMARK    4  A    between atoms: S_11  and  C_13 
REMARK    5  A    between atoms: C_15  and  C_14 
ROOT
ATOM      1  S   UNL d   1     -50.850  26.349  33.306  0.00  0.00    -0.058 SA
ENDROOT
BRANCH   1   2
ATOM      2  C   UNL d   1     -51.285  25.662  33.361  0.00  0.00     0.141 A 
ATOM      3  N   UNL d   1     -52.104  25.622  33.481  0.00  0.00    -0.232 NA
ATOM      4  C   UNL d   1     -52.312  24.831  33.500  0.00  0.00     0.088 A 
ATOM      5  C   UNL d   1     -53.029  24.441  33.600  0.00  0.00     0.020 A 
ATOM      6  C   UNL d   1     -51.623  24.386  33.392  0.00  0.00     0.049 A 
ATOM      7  C   UNL d   1     -53.070  23.634  33.594  0.00  0.00     0.002 A 
ATOM      8  C   UNL d   1     -52.382  23.189  33.486  0.00  0.00     0.001 A 
ATOM      9  C   UNL d   1     -51.656  23.554  33.384  0.00  0.00     0.008 A 
ATOM     10  S   UNL d   1     -50.999  24.909  33.307  0.00  0.00    -0.060 SA
ENDBRANCH   1   2
BRANCH   1  11
ATOM     11  C   UNL d   1     -50.764  26.830  33.976  0.00  0.00     0.077 C 
BRANCH  11  12
ATOM     12  C   UNL d   1     -50.033  27.165  34.140  0.00  0.00     0.178 A 
ATOM     13  N   UNL d   1     -49.890  27.462  34.875  0.00  0.00    -0.264 N 
ATOM     14  C   UNL d   1     -49.120  27.757  34.870  0.00  0.00     0.227 A 
ATOM     15  N   UNL d   1     -48.823  27.633  34.140  0.00  0.00    -0.117 NA
ATOM     16  S   UNL d   1     -48.686  28.138  35.520  0.00  0.00    -0.036 SA
ATOM     17  N   UNL d   1     -49.364  27.276  33.690  0.00  0.00    -0.127 NA
BRANCH  13  18
ATOM     18  C   UNL d   1     -50.409  27.485  35.556  0.00  0.00     0.084 C 
BRANCH  18  19
ATOM     19  C   UNL d   1     -50.226  27.014  36.218  0.00  0.00     0.019 C 
ATOM     20  C   UNL d   1     -50.826  26.801  36.757  0.00  0.00     0.002 C 
ENDBRANCH  18  19
ENDBRANCH  13  18
ENDBRANCH  11  12
ENDBRANCH   1  11
TORSDOF 5
ENDMDL
MODEL 2
REMARK VINA RESULT:      52.4      1.505      4.624
REMARK  5 active torsions:
REMARK  status: ('A' for Active; 'I' for Inactive)
REMARK    1  A    between atoms: C_14  and  N_1 
REMARK    2  A    between atoms: C_13  and  C_3 
REMARK    3  A    between atoms: C_4  and  S_11 
REMARK    4  A    between atoms: S_11  and  C_13 
REMARK    5  A    between atoms: C_15  and  C_14 
ROOT
ATOM      1  S   UNL d   1     -50.227  27.471  33.393  0.00  0.00    -0.058 SA
ENDROOT
BRANCH   1   2
ATOM      2  C   UNL d   1     -49.640  27.829  33.832  0.00  0.00     0.141 A 
ATOM      3  N   UNL d   1     -49.005  27.437  34.191  0.00  0.00    -0.232 NA
ATOM      4  C   UNL d   1     -48.551  28.002  34.573  0.00  0.00     0.088 A 
ATOM      5  C   UNL d   1     -47.862  27.961  35.019  0.00  0.00     0.020 A 
ATOM      6  C   UNL d   1     -48.907  28.738  34.449  0.00  0.00     0.049 A 
ATOM      7  C   UNL d   1     -47.529  28.625  35.337  0.00  0.00     0.002 A 
ATOM      8  C   UNL d   1     -47.885  29.361  35.213  0.00  0.00     0.001 A 
ATOM      9  C   UNL d   1     -48.572  29.428  34.772  0.00  0.00     0.008 A 
ATOM     10  S   UNL d   1     -49.576  28.617  33.992  0.00  0.00    -0.060 SA
ENDBRANCH   1   2
BRANCH   1  11
ATOM     11  C   UNL d   1     -50.280  26.644  33.384  0.00  0.00     0.077 C 
BRANCH  11  12
ATOM     12  C   UNL d   1     -51.020  26.289  33.379  0.00  0.00     0.178 A 
ATOM     13  N   UNL d   1     -51.073  25.486  33.343  0.00  0.00    -0.264 N 
ATOM     14  C   UNL d   1     -51.876  25.296  33.347  0.00  0.00     0.227 A 
ATOM     15  N   UNL d   1     -52.281  25.982  33.385  0.00  0.00    -0.117 NA
ATOM     16  S   UNL d   1     -52.242  24.509  33.317  0.00  0.00    -0.036 SA
ATOM     17  N   UNL d   1     -51.776  26.588  33.405  0.00  0.00    -0.127 NA
BRANCH  13  18
ATOM     18  C   UNL d   1     -50.442  24.906  33.307  0.00  0.00     0.084 C 
BRANCH  18  19
ATOM     19  C   UNL d   1     -50.596  24.128  33.561  0.00  0.00     0.019 C 
ATOM     20  C   UNL d   1     -50.059  23.517  33.379  0.00  0.00     0.002 C 
ENDBRANCH  18  19
ENDBRANCH  13  18
ENDBRANCH  11  12
ENDBRANCH   1  11
TORSDOF 5
ENDMDL
MODEL 3
REMARK VINA RESULT:      55.0      1.954      3.110
REMARK  5 active torsions:
REMARK  status: ('A' for Active; 'I' for Inactive)
REMARK    1  A    between atoms: C_14  and  N_1 
REMARK    2  A    between atoms: C_13  and  C_3 
REMARK    3  A    between atoms: C_4  and  S_11 
REMARK    4  A    between atoms: S_11  and  C_13 
REMARK    5  A    between atoms: C_15  and  C_14 
ROOT
ATOM      1  S   UNL d   1     -48.814  27.821  34.110  0.00  0.00    -0.058 SA
ENDROOT
BRANCH   1   2
ATOM      2  C   UNL d   1     -49.488  27.401  33.922  0.00  0.00     0.141 A 
ATOM      3  N   UNL d   1     -50.240  27.728  33.810  0.00  0.00    -0.232 NA
ATOM      4  C   UNL d   1     -50.752  27.114  33.632  0.00  0.00     0.088 A 
ATOM      5  C   UNL d   1     -51.556  27.083  33.466  0.00  0.00     0.020 A 
ATOM      6  C   UNL d   1     -50.314  26.412  33.636  0.00  0.00     0.049 A 
ATOM      7  C   UNL d   1     -51.924  26.382  33.307  0.00  0.00     0.002 A 
ATOM      8  C   UNL d   1     -51.487  25.680  33.310  0.00  0.00     0.001 A 
ATOM      9  C   UNL d   1     -50.685  25.684  33.473  0.00  0.00     0.008 A 
ATOM     10  S   UNL d   1     -49.539  26.602  33.815  0.00  0.00    -0.060 SA
ENDBRANCH   1   2
BRANCH   1  11
ATOM     11  C   UNL d   1     -48.885  28.596  34.394  0.00  0.00     0.077 C 
BRANCH  11  12
ATOM     12  C   UNL d   1     -48.375  28.857  34.982  0.00  0.00     0.178 A 
ATOM     13  N   UNL d   1     -48.172  29.636  35.011  0.00  0.00    -0.264 N 
ATOM     14  C   UNL d   1     -47.661  29.728  35.653  0.00  0.00     0.227 A 
ATOM     15  N   UNL d   1     -47.571  29.010  35.988  0.00  0.00    -0.117 NA
ATOM     16  S   UNL d   1     -47.277  30.455  35.934  0.00  0.00    -0.036 SA
ATOM     17  N   UNL d   1     -47.997  28.476  35.593  0.00  0.00    -0.127 NA
BRANCH  13  18
ATOM     18  C   UNL d   1     -48.416  30.276  34.496  0.00  0.00     0.084 C 
BRANCH  18  19
ATOM     19  C   UNL d   1     -47.967  30.977  34.485  0.00  0.00     0.019 C 
ATOM     20  C   UNL d   1     -48.285  31.669  34.146  0.00  0.00     0.002 C 
ENDBRANCH  18  19
ENDBRANCH  13  18
ENDBRANCH  11  12
ENDBRANCH   1  11
TORSDOF 5
ENDMDL
