MODEL 1
REMARK VINA RESULT:      33.9      0.000      0.000
REMARK  7 active torsions:
REMARK  status: ('A' for Active; 'I' for Inactive)
REMARK    1  A    between atoms: S_2  and  C_1 
REMARK    2  A    between atoms: C_6  and  S_2 
REMARK    3  A    between atoms: C_24  and  C_16 
REMARK    4  A    between atoms: C_25  and  C_24 
REMARK    5  A    between atoms: C_28  and  C_25 
REMARK    6  A    between atoms: C_26  and  C_27 
REMARK    7  A    between atoms: C_27  and  C_28 
ROOT
ATOM      1  C   UNL d   1      45.357 -16.135  44.455  0.00  0.00     0.151 A 
ATOM      2  C   UNL d   1      44.607 -16.376  44.702  0.00  0.00     0.311 A 
ATOM      3  C   UNL d   1      45.913 -16.694  44.221  0.00  0.00     0.019 A 
ATOM      4  O   UNL d   1      44.414 -17.176  44.714  0.00  0.00    -0.272 OA
ATOM      5  C   UNL d   1      44.971 -17.736  44.479  0.00  0.00     0.106 A 
ATOM      6  C   UNL d   1      45.721 -17.495  44.233  0.00  0.00     0.024 A 
ATOM      7  C   UNL d   1      44.778 -18.536  44.492  0.00  0.00     0.067 A 
ATOM      8  C   UNL d   1      45.339 -19.108  44.255  0.00  0.00     0.198 A 
ATOM      9  C   UNL d   1      46.277 -18.054  43.999  0.00  0.00     0.005 A 
ATOM     10  C   UNL d   1      46.088 -18.867  44.009  0.00  0.00     0.039 A 
ATOM     11  O   UNL d   1      44.039 -15.807  44.940  0.00  0.00    -0.258 OA
ATOM     12  O   UNL d   1      45.146 -19.908  44.267  0.00  0.00    -0.286 OA
ENDROOT
BRANCH   1  13
ATOM     13  S   UNL d   1      45.546 -15.323  44.445  0.00  0.00     0.215 S 
ATOM     14  O   UNL d   1      46.262 -15.486  44.841  0.00  0.00    -0.217 OA
ATOM     15  O   UNL d   1      44.833 -15.159  44.052  0.00  0.00    -0.217 OA
BRANCH  13  16
ATOM     16  C   UNL d   1      45.738 -14.523  44.439  0.00  0.00     0.089 A 
ATOM     17  C   UNL d   1      45.360 -14.011  43.910  0.00  0.00     0.025 A 
ATOM     18  C   UNL d   1      45.551 -13.202  43.901  0.00  0.00     0.086 A 
ATOM     19 CL   UNL d   1      45.173 -12.694  43.374  0.00  0.00    -0.080 Cl
ATOM     20  C   UNL d   1      46.121 -12.910  44.420  0.00  0.00     0.151 A 
ATOM     21  C   UNL d   1      46.499 -13.418  44.947  0.00  0.00     0.031 A 
ATOM     22  F   UNL d   1      46.313 -12.105  44.411  0.00  0.00    -0.203 F 
ATOM     23  C   UNL d   1      46.307 -14.218  44.954  0.00  0.00     0.014 A 
ENDBRANCH  13  16
ENDBRANCH   1  13
BRANCH  10  24
ATOM     24  C   UNL d   1      46.647 -19.433  43.773  0.00  0.00     0.003 C 
BRANCH  24  25
ATOM     25  C   UNL d   1      46.514 -19.902  43.107  0.00  0.00     0.000 C 
BRANCH  25  26
ATOM     26  C   UNL d   1      46.644 -19.598  42.353  0.00  0.00     0.000 C 
BRANCH  26  27
ATOM     27  C   UNL d   1      46.388 -20.008  41.684  0.00  0.00     0.000 C 
BRANCH  27  28
ATOM     28  C   UNL d   1      46.399 -19.651  40.938  0.00  0.00     0.000 C 
ATOM     29  C   UNL d   1      46.488 -18.837  40.871  0.00  0.00     0.000 C 
ENDBRANCH  27  28
ENDBRANCH  26  27
ENDBRANCH  25  26
ENDBRANCH  24  25
ENDBRANCH  10  24
TORSDOF 7
ENDMDL
MODEL 2
REMARK VINA RESULT:      36.5      2.445      5.325
REMARK  7 active torsions:
REMARK  status: ('A' for Active; 'I' for Inactive)
REMARK    1  A    between atoms: S_2  and  C_1 
REMARK    2  A    between atoms: C_6  and  S_2 
REMARK    3  A    between atoms: C_24  and  C_16 
REMARK    4  A    between atoms: C_25  and  C_24 
REMARK    5  A    between atoms: C_28  and  C_25 
REMARK    6  A    between atoms: C_26  and  C_27 
REMARK    7  A    between atoms: C_27  and  C_28 
ROOT
ATOM      1  C   UNL d   1      46.130 -16.367  43.732  0.00  0.00     0.151 A 
ATOM      2  C   UNL d   1      46.364 -16.359  44.523  0.00  0.00     0.311 A 
ATOM      3  C   UNL d   1      45.967 -15.661  43.343  0.00  0.00     0.019 A 
ATOM      4  O   UNL d   1      46.436 -15.644  44.925  0.00  0.00    -0.272 OA
ATOM      5  C   UNL d   1      46.273 -14.937  44.535  0.00  0.00     0.106 A 
ATOM      6  C   UNL d   1      46.039 -14.945  43.744  0.00  0.00     0.024 A 
ATOM      7  C   UNL d   1      46.345 -14.222  44.937  0.00  0.00     0.067 A 
ATOM      8  C   UNL d   1      46.182 -13.502  44.547  0.00  0.00     0.198 A 
ATOM      9  C   UNL d   1      45.877 -14.239  43.355  0.00  0.00     0.005 A 
ATOM     10  C   UNL d   1      45.947 -13.510  43.756  0.00  0.00     0.039 A 
ATOM     11  O   UNL d   1      46.529 -17.078  44.921  0.00  0.00    -0.258 OA
ATOM     12  O   UNL d   1      46.253 -12.787  44.949  0.00  0.00    -0.286 OA
ENDROOT
BRANCH   1  13
ATOM     13  S   UNL d   1      46.059 -17.095  43.331  0.00  0.00     0.215 S 
ATOM     14  O   UNL d   1      46.594 -16.826  42.751  0.00  0.00    -0.217 OA
ATOM     15  O   UNL d   1      45.526 -17.365  43.908  0.00  0.00    -0.217 OA
BRANCH  13  16
ATOM     16  C   UNL d   1      45.994 -17.811  42.930  0.00  0.00     0.089 A 
ATOM     17  C   UNL d   1      46.351 -17.904  42.190  0.00  0.00     0.025 A 
ATOM     18  C   UNL d   1      46.288 -18.625  41.782  0.00  0.00     0.086 A 
ATOM     19 CL   UNL d   1      46.645 -18.715  41.045  0.00  0.00    -0.080 Cl
ATOM     20  C   UNL d   1      45.867 -19.250  42.117  0.00  0.00     0.151 A 
ATOM     21  C   UNL d   1      45.510 -19.158  42.854  0.00  0.00     0.031 A 
ATOM     22  F   UNL d   1      45.803 -19.968  41.712  0.00  0.00    -0.203 F 
ATOM     23  C   UNL d   1      45.575 -18.443  43.255  0.00  0.00     0.014 A 
ENDBRANCH  13  16
ENDBRANCH   1  13
BRANCH  10  24
ATOM     24  C   UNL d   1      45.785 -12.796  43.367  0.00  0.00     0.003 C 
BRANCH  24  25
ATOM     25  C   UNL d   1      45.133 -12.338  43.584  0.00  0.00     0.000 C 
BRANCH  25  26
ATOM     26  C   UNL d   1      44.381 -12.529  43.309  0.00  0.00     0.000 C 
BRANCH  26  27
ATOM     27  C   UNL d   1      44.126 -12.273  42.567  0.00  0.00     0.000 C 
BRANCH  27  28
ATOM     28  C   UNL d   1      44.648 -12.250  41.925  0.00  0.00     0.000 C 
ATOM     29  C   UNL d   1      44.363 -12.127  41.165  0.00  0.00     0.000 C 
ENDBRANCH  27  28
ENDBRANCH  26  27
ENDBRANCH  25  26
ENDBRANCH  24  25
ENDBRANCH  10  24
TORSDOF 7
ENDMDL
