MODEL 1
REMARK VINA RESULT:      -7.3      0.000      0.000
REMARK  7 active torsions:
REMARK  status: ('A' for Active; 'I' for Inactive)
REMARK    1  A    between atoms: S_10  and  C_5 
REMARK    2  A    between atoms: C_11  and  N_8 
REMARK    3  A    between atoms: C_15  and  S_10 
REMARK    4  A    between atoms: C_19  and  C_11 
REMARK    5  A    between atoms: C_14  and  C_15 
REMARK    6  A    between atoms: C_17  and  C_14 
REMARK    7  A    between atoms: C_20  and  C_19 
ROOT
ATOM      1  C   UNL d   1     -45.918  11.577  23.223  0.00  0.00     0.174 A 
ATOM      2  C   UNL d   1     -45.822  12.323  22.884  0.00  0.00     0.159 A 
ATOM      3  N   UNL d   1     -46.713  11.464  23.380  0.00  0.00    -0.203 NA
ATOM      4  N   UNL d   1     -45.249  11.083  23.347  0.00  0.00    -0.239 N 
ATOM      5  C   UNL d   1     -47.084  12.165  23.125  0.00  0.00     0.181 A 
ATOM      6  C   UNL d   1     -44.519  11.326  23.142  0.00  0.00     0.358 A 
ATOM      7  N   UNL d   1     -44.420  12.101  22.790  0.00  0.00    -0.152 NA
ATOM      8  N   UNL d   1     -46.561  12.654  22.840  0.00  0.00    -0.279 N 
ATOM      9  C   UNL d   1     -45.056  12.590  22.663  0.00  0.00     0.302 A 
ATOM     10  O   UNL d   1     -43.873  10.820  23.275  0.00  0.00    -0.244 OA
ATOM     11  O   UNL d   1     -44.934  13.332  22.322  0.00  0.00    -0.263 OA
ATOM     12  C   UNL d   1     -45.317  10.333  23.684  0.00  0.00     0.105 C 
ENDROOT
BRANCH   5  13
ATOM     13  S   UNL d   1     -47.906  12.315  23.171  0.00  0.00    -0.046 SA
BRANCH  13  14
ATOM     14  C   UNL d   1     -48.442  11.831  22.780  0.00  0.00     0.080 C 
BRANCH  14  15
ATOM     15  C   UNL d   1     -49.223  11.763  23.055  0.00  0.00     0.202 C 
ATOM     16  O   UNL d   1     -49.373  11.291  23.697  0.00  0.00    -0.286 OA
BRANCH  15  17
ATOM     17  C   UNL d   1     -49.830  12.174  22.676  0.00  0.00     0.040 A 
ATOM     18  C   UNL d   1     -49.869  12.203  21.865  0.00  0.00     0.003 A 
ATOM     19  C   UNL d   1     -50.476  12.613  21.487  0.00  0.00     0.000 A 
ATOM     20  C   UNL d   1     -51.063  13.007  21.934  0.00  0.00     0.000 A 
ATOM     21  C   UNL d   1     -51.009  12.967  22.753  0.00  0.00     0.000 A 
ATOM     22  C   UNL d   1     -50.404  12.559  23.126  0.00  0.00     0.003 A 
ENDBRANCH  15  17
ENDBRANCH  14  15
ENDBRANCH  13  14
ENDBRANCH   5  13
BRANCH   8  23
ATOM     23  C   UNL d   1     -46.744  13.425  22.528  0.00  0.00     0.082 C 
BRANCH  23  24
ATOM     24  C   UNL d   1     -46.856  14.075  23.020  0.00  0.00     0.019 C 
BRANCH  24  25
ATOM     25  C   UNL d   1     -47.081  14.778  22.733  0.00  0.00     0.002 C 
ATOM     26  C   UNL d   1     -47.867  15.017  22.807  0.00  0.00     0.000 C 
ATOM     27  C   UNL d   1     -46.562  15.260  22.372  0.00  0.00     0.000 C 
ENDBRANCH  24  25
ENDBRANCH  23  24
ENDBRANCH   8  23
TORSDOF 7
ENDMDL
MODEL 2
REMARK VINA RESULT:      -6.6      1.606      2.840
REMARK  7 active torsions:
REMARK  status: ('A' for Active; 'I' for Inactive)
REMARK    1  A    between atoms: S_10  and  C_5 
REMARK    2  A    between atoms: C_11  and  N_8 
REMARK    3  A    between atoms: C_15  and  S_10 
REMARK    4  A    between atoms: C_19  and  C_11 
REMARK    5  A    between atoms: C_14  and  C_15 
REMARK    6  A    between atoms: C_17  and  C_14 
REMARK    7  A    between atoms: C_20  and  C_19 
ROOT
ATOM      1  C   UNL d   1     -46.045  13.094  22.411  0.00  0.00     0.174 A 
ATOM      2  C   UNL d   1     -46.441  12.511  22.840  0.00  0.00     0.159 A 
ATOM      3  N   UNL d   1     -46.586  13.671  22.199  0.00  0.00    -0.203 NA
ATOM      4  N   UNL d   1     -45.221  13.022  22.265  0.00  0.00    -0.239 N 
ATOM      5  C   UNL d   1     -47.312  13.411  22.515  0.00  0.00     0.181 A 
ATOM      6  C   UNL d   1     -44.812  12.395  22.536  0.00  0.00     0.358 A 
ATOM      7  N   UNL d   1     -45.222  11.790  22.982  0.00  0.00    -0.152 NA
ATOM      8  N   UNL d   1     -47.217  12.741  22.884  0.00  0.00    -0.279 N 
ATOM      9  C   UNL d   1     -46.019  11.844  23.132  0.00  0.00     0.302 A 
ATOM     10  O   UNL d   1     -43.997  12.346  22.379  0.00  0.00    -0.244 OA
ATOM     11  O   UNL d   1     -46.391  11.248  23.564  0.00  0.00    -0.263 OA
ATOM     12  C   UNL d   1     -44.802  13.591  21.838  0.00  0.00     0.105 C 
ENDROOT
BRANCH   5  13
ATOM     13  S   UNL d   1     -48.038  13.819  22.443  0.00  0.00    -0.046 SA
BRANCH  13  14
ATOM     14  C   UNL d   1     -48.086  14.622  22.613  0.00  0.00     0.080 C 
BRANCH  14  15
ATOM     15  C   UNL d   1     -48.647  15.099  22.229  0.00  0.00     0.202 C 
ATOM     16  O   UNL d   1     -48.490  15.362  21.479  0.00  0.00    -0.286 OA
BRANCH  15  17
ATOM     17  C   UNL d   1     -49.350  15.297  22.612  0.00  0.00     0.040 A 
ATOM     18  C   UNL d   1     -49.342  15.704  23.315  0.00  0.00     0.003 A 
ATOM     19  C   UNL d   1     -50.045  15.901  23.698  0.00  0.00     0.000 A 
ATOM     20  C   UNL d   1     -50.781  15.684  23.366  0.00  0.00     0.000 A 
ATOM     21  C   UNL d   1     -50.773  15.273  22.654  0.00  0.00     0.000 A 
ATOM     22  C   UNL d   1     -50.072  15.078  22.276  0.00  0.00     0.003 A 
ENDBRANCH  15  17
ENDBRANCH  14  15
ENDBRANCH  13  14
ENDBRANCH   5  13
BRANCH   8  23
ATOM     23  C   UNL d   1     -47.842  12.315  23.274  0.00  0.00     0.082 C 
BRANCH  23  24
ATOM     24  C   UNL d   1     -48.559  12.160  22.901  0.00  0.00     0.019 C 
BRANCH  24  25
ATOM     25  C   UNL d   1     -49.060  11.611  23.177  0.00  0.00     0.002 C 
ATOM     26  C   UNL d   1     -49.844  11.609  22.922  0.00  0.00     0.000 C 
ATOM     27  C   UNL d   1     -48.820  11.061  23.697  0.00  0.00     0.000 C 
ENDBRANCH  24  25
ENDBRANCH  23  24
ENDBRANCH   8  23
TORSDOF 7
ENDMDL
MODEL 3
REMARK VINA RESULT:      -6.3      1.770      4.413
REMARK  7 active torsions:
REMARK  status: ('A' for Active; 'I' for Inactive)
REMARK    1  A    between atoms: S_10  and  C_5 
REMARK    2  A    between atoms: C_11  and  N_8 
REMARK    3  A    between atoms: C_15  and  S_10 
REMARK    4  A    between atoms: C_19  and  C_11 
REMARK    5  A    between atoms: C_14  and  C_15 
REMARK    6  A    between atoms: C_17  and  C_14 
REMARK    7  A    between atoms: C_20  and  C_19 
ROOT
ATOM      1  C   UNL d   1     -49.052  12.197  23.398  0.00  0.00     0.174 A 
ATOM      2  C   UNL d   1     -49.409  12.936  23.318  0.00  0.00     0.159 A 
ATOM      3  N   UNL d   1     -48.241  12.292  23.330  0.00  0.00    -0.203 NA
ATOM      4  N   UNL d   1     -49.525  11.514  23.525  0.00  0.00    -0.239 N 
ATOM      5  C   UNL d   1     -48.131  13.108  23.207  0.00  0.00     0.181 A 
ATOM      6  C   UNL d   1     -50.318  11.569  23.571  0.00  0.00     0.358 A 
ATOM      7  N   UNL d   1     -50.688  12.337  23.488  0.00  0.00    -0.152 NA
ATOM      8  N   UNL d   1     -48.811  13.471  23.202  0.00  0.00    -0.279 N 
ATOM      9  C   UNL d   1     -50.246  13.007  23.364  0.00  0.00     0.302 A 
ATOM     10  O   UNL d   1     -50.764  10.880  23.698  0.00  0.00    -0.244 OA
ATOM     11  O   UNL d   1     -50.627  13.735  23.288  0.00  0.00    -0.263 OA
ATOM     12  C   UNL d   1     -49.192  10.763  23.608  0.00  0.00     0.105 C 
ENDROOT
BRANCH   5  13
ATOM     13  S   UNL d   1     -47.389  13.480  23.105  0.00  0.00    -0.046 SA
BRANCH  13  14
ATOM     14  C   UNL d   1     -46.721  13.038  22.921  0.00  0.00     0.080 C 
BRANCH  14  15
ATOM     15  C   UNL d   1     -45.963  13.362  23.022  0.00  0.00     0.202 C 
ATOM     16  O   UNL d   1     -45.871  13.996  23.518  0.00  0.00    -0.286 OA
BRANCH  15  17
ATOM     17  C   UNL d   1     -45.320  13.037  22.621  0.00  0.00     0.040 A 
ATOM     18  C   UNL d   1     -44.967  12.353  22.883  0.00  0.00     0.003 A 
ATOM     19  C   UNL d   1     -44.325  12.029  22.482  0.00  0.00     0.000 A 
ATOM     20  C   UNL d   1     -44.023  12.401  21.796  0.00  0.00     0.000 A 
ATOM     21  C   UNL d   1     -44.390  13.092  21.544  0.00  0.00     0.000 A 
ATOM     22  C   UNL d   1     -45.030  13.412  21.945  0.00  0.00     0.003 A 
ENDBRANCH  15  17
ENDBRANCH  14  15
ENDBRANCH  13  14
ENDBRANCH   5  13
BRANCH   8  23
ATOM     23  C   UNL d   1     -48.907  14.310  23.091  0.00  0.00     0.082 C 
BRANCH  23  24
ATOM     24  C   UNL d   1     -48.830  14.659  22.350  0.00  0.00     0.019 C 
BRANCH  24  25
ATOM     25  C   UNL d   1     -48.912  15.441  22.250  0.00  0.00     0.002 C 
ATOM     26  C   UNL d   1     -48.853  15.766  21.494  0.00  0.00     0.000 C 
ATOM     27  C   UNL d   1     -49.049  15.922  22.868  0.00  0.00     0.000 C 
ENDBRANCH  24  25
ENDBRANCH  23  24
ENDBRANCH   8  23
TORSDOF 7
ENDMDL
MODEL 4
REMARK VINA RESULT:      -5.8      1.996      5.068
REMARK  7 active torsions:
REMARK  status: ('A' for Active; 'I' for Inactive)
REMARK    1  A    between atoms: S_10  and  C_5 
REMARK    2  A    between atoms: C_11  and  N_8 
REMARK    3  A    between atoms: C_15  and  S_10 
REMARK    4  A    between atoms: C_19  and  C_11 
REMARK    5  A    between atoms: C_14  and  C_15 
REMARK    6  A    between atoms: C_17  and  C_14 
REMARK    7  A    between atoms: C_20  and  C_19 
ROOT
ATOM      1  C   UNL d   1     -49.059  14.433  22.585  0.00  0.00     0.174 A 
ATOM      2  C   UNL d   1     -49.385  13.772  22.954  0.00  0.00     0.159 A 
ATOM      3  N   UNL d   1     -48.248  14.332  22.541  0.00  0.00    -0.203 NA
ATOM      4  N   UNL d   1     -49.558  15.059  22.329  0.00  0.00    -0.239 N 
ATOM      5  C   UNL d   1     -48.104  13.592  22.895  0.00  0.00     0.181 A 
ATOM      6  C   UNL d   1     -50.346  15.024  22.438  0.00  0.00     0.358 A 
ATOM      7  N   UNL d   1     -50.684  14.337  22.822  0.00  0.00    -0.152 NA
ATOM      8  N   UNL d   1     -48.767  13.277  23.130  0.00  0.00    -0.279 N 
ATOM      9  C   UNL d   1     -50.216  13.723  23.075  0.00  0.00     0.302 A 
ATOM     10  O   UNL d   1     -50.819  15.656  22.177  0.00  0.00    -0.244 OA
ATOM     11  O   UNL d   1     -50.566  13.072  23.443  0.00  0.00    -0.263 OA
ATOM     12  C   UNL d   1     -49.258  15.732  21.956  0.00  0.00     0.105 C 
ENDROOT
BRANCH   5  13
ATOM     13  S   UNL d   1     -47.350  13.243  22.983  0.00  0.00    -0.046 SA
BRANCH  13  14
ATOM     14  C   UNL d   1     -46.696  13.555  22.594  0.00  0.00     0.080 C 
BRANCH  14  15
ATOM     15  C   UNL d   1     -45.941  13.501  22.936  0.00  0.00     0.202 C 
ATOM     16  O   UNL d   1     -45.836  13.757  23.697  0.00  0.00    -0.286 OA
BRANCH  15  17
ATOM     17  C   UNL d   1     -45.313  13.190  22.500  0.00  0.00     0.040 A 
ATOM     18  C   UNL d   1     -45.024  12.448  22.658  0.00  0.00     0.003 A 
ATOM     19  C   UNL d   1     -44.396  12.138  22.222  0.00  0.00     0.000 A 
ATOM     20  C   UNL d   1     -44.047  12.585  21.608  0.00  0.00     0.000 A 
ATOM     21  C   UNL d   1     -44.351  13.334  21.460  0.00  0.00     0.000 A 
ATOM     22  C   UNL d   1     -44.975  13.640  21.896  0.00  0.00     0.003 A 
ENDBRANCH  15  17
ENDBRANCH  14  15
ENDBRANCH  13  14
ENDBRANCH   5  13
BRANCH   8  23
ATOM     23  C   UNL d   1     -48.829  12.521  23.517  0.00  0.00     0.082 C 
BRANCH  23  24
ATOM     24  C   UNL d   1     -48.653  11.819  23.124  0.00  0.00     0.019 C 
BRANCH  24  25
ATOM     25  C   UNL d   1     -48.712  11.116  23.486  0.00  0.00     0.002 C 
ATOM     26  C   UNL d   1     -48.027  10.706  23.695  0.00  0.00     0.000 C 
ATOM     27  C   UNL d   1     -49.420  10.797  23.652  0.00  0.00     0.000 C 
ENDBRANCH  24  25
ENDBRANCH  23  24
ENDBRANCH   8  23
TORSDOF 7
ENDMDL
MODEL 5
REMARK VINA RESULT:      -5.3      1.620      2.750
REMARK  7 active torsions:
REMARK  status: ('A' for Active; 'I' for Inactive)
REMARK    1  A    between atoms: S_10  and  C_5 
REMARK    2  A    between atoms: C_11  and  N_8 
REMARK    3  A    between atoms: C_15  and  S_10 
REMARK    4  A    between atoms: C_19  and  C_11 
REMARK    5  A    between atoms: C_14  and  C_15 
REMARK    6  A    between atoms: C_17  and  C_14 
REMARK    7  A    between atoms: C_20  and  C_19 
ROOT
ATOM      1  C   UNL d   1     -45.067  13.160  22.198  0.00  0.00     0.174 A 
ATOM      2  C   UNL d   1     -45.326  12.522  22.653  0.00  0.00     0.159 A 
ATOM      3  N   UNL d   1     -45.654  13.733  22.197  0.00  0.00    -0.203 NA
ATOM      4  N   UNL d   1     -44.311  13.137  21.833  0.00  0.00    -0.239 N 
ATOM      5  C   UNL d   1     -46.265  13.413  22.665  0.00  0.00     0.181 A 
ATOM      6  C   UNL d   1     -43.835  12.504  21.920  0.00  0.00     0.358 A 
ATOM      7  N   UNL d   1     -44.104  11.842  22.392  0.00  0.00    -0.152 NA
ATOM      8  N   UNL d   1     -46.066  12.715  22.923  0.00  0.00    -0.279 N 
ATOM      9  C   UNL d   1     -44.833  11.849  22.751  0.00  0.00     0.302 A 
ATOM     10  O   UNL d   1     -43.091  12.504  21.550  0.00  0.00    -0.244 OA
ATOM     11  O   UNL d   1     -45.068  11.198  23.201  0.00  0.00    -0.263 OA
ATOM     12  C   UNL d   1     -44.029  13.762  21.374  0.00  0.00     0.105 C 
ENDROOT
BRANCH   5  13
ATOM     13  S   UNL d   1     -46.990  13.797  22.830  0.00  0.00    -0.046 SA
BRANCH  13  14
ATOM     14  C   UNL d   1     -47.362  14.252  22.256  0.00  0.00     0.080 C 
BRANCH  14  15
ATOM     15  C   UNL d   1     -47.775  14.940  22.472  0.00  0.00     0.202 C 
ATOM     16  O   UNL d   1     -47.355  15.596  22.694  0.00  0.00    -0.286 OA
BRANCH  15  17
ATOM     17  C   UNL d   1     -48.600  14.946  22.457  0.00  0.00     0.040 A 
ATOM     18  C   UNL d   1     -49.011  14.495  21.920  0.00  0.00     0.003 A 
ATOM     19  C   UNL d   1     -49.835  14.502  21.905  0.00  0.00     0.000 A 
ATOM     20  C   UNL d   1     -50.263  14.975  22.446  0.00  0.00     0.000 A 
ATOM     21  C   UNL d   1     -49.834  15.426  22.982  0.00  0.00     0.000 A 
ATOM     22  C   UNL d   1     -49.014  15.417  22.994  0.00  0.00     0.003 A 
ENDBRANCH  15  17
ENDBRANCH  14  15
ENDBRANCH  13  14
ENDBRANCH   5  13
BRANCH   8  23
ATOM     23  C   UNL d   1     -46.559  12.227  23.417  0.00  0.00     0.082 C 
BRANCH  23  24
ATOM     24  C   UNL d   1     -47.325  12.023  23.197  0.00  0.00     0.019 C 
BRANCH  24  25
ATOM     25  C   UNL d   1     -47.701  11.409  23.527  0.00  0.00     0.002 C 
ATOM     26  C   UNL d   1     -47.285  10.718  23.698  0.00  0.00     0.000 C 
ATOM     27  C   UNL d   1     -48.477  11.446  23.698  0.00  0.00     0.000 C 
ENDBRANCH  24  25
ENDBRANCH  23  24
ENDBRANCH   8  23
TORSDOF 7
ENDMDL
MODEL 6
REMARK VINA RESULT:      -4.5      1.554      4.454
REMARK  7 active torsions:
REMARK  status: ('A' for Active; 'I' for Inactive)
REMARK    1  A    between atoms: S_10  and  C_5 
REMARK    2  A    between atoms: C_11  and  N_8 
REMARK    3  A    between atoms: C_15  and  S_10 
REMARK    4  A    between atoms: C_19  and  C_11 
REMARK    5  A    between atoms: C_14  and  C_15 
REMARK    6  A    between atoms: C_17  and  C_14 
REMARK    7  A    between atoms: C_20  and  C_19 
ROOT
ATOM      1  C   UNL d   1     -47.080  13.873  22.741  0.00  0.00     0.174 A 
ATOM      2  C   UNL d   1     -47.871  13.745  22.937  0.00  0.00     0.159 A 
ATOM      3  N   UNL d   1     -46.657  13.192  22.911  0.00  0.00    -0.203 NA
ATOM      4  N   UNL d   1     -46.840  14.613  22.425  0.00  0.00    -0.239 N 
ATOM      5  C   UNL d   1     -47.222  12.659  23.213  0.00  0.00     0.181 A 
ATOM      6  C   UNL d   1     -47.367  15.198  22.310  0.00  0.00     0.358 A 
ATOM      7  N   UNL d   1     -48.189  15.065  22.514  0.00  0.00    -0.152 NA
ATOM      8  N   UNL d   1     -47.919  12.988  23.224  0.00  0.00    -0.279 N 
ATOM      9  C   UNL d   1     -48.437  14.355  22.821  0.00  0.00     0.302 A 
ATOM     10  O   UNL d   1     -47.106  15.922  21.996  0.00  0.00    -0.244 OA
ATOM     11  O   UNL d   1     -49.234  14.253  23.009  0.00  0.00    -0.263 OA
ATOM     12  C   UNL d   1     -46.055  14.766  22.221  0.00  0.00     0.105 C 
ENDROOT
BRANCH   5  13
ATOM     13  S   UNL d   1     -47.056  11.879  23.467  0.00  0.00    -0.046 SA
BRANCH  13  14
ATOM     14  C   UNL d   1     -46.293  11.663  23.682  0.00  0.00     0.080 C 
BRANCH  14  15
ATOM     15  C   UNL d   1     -46.056  10.868  23.638  0.00  0.00     0.202 C 
ATOM     16  O   UNL d   1     -46.618  10.287  23.693  0.00  0.00    -0.286 OA
BRANCH  15  17
ATOM     17  C   UNL d   1     -45.258  10.682  23.539  0.00  0.00     0.040 A 
ATOM     18  C   UNL d   1     -44.726  11.245  23.292  0.00  0.00     0.003 A 
ATOM     19  C   UNL d   1     -43.930  11.059  23.194  0.00  0.00     0.000 A 
ATOM     20  C   UNL d   1     -43.655  10.284  23.348  0.00  0.00     0.000 A 
ATOM     21  C   UNL d   1     -44.205   9.726  23.597  0.00  0.00     0.000 A 
ATOM     22  C   UNL d   1     -44.997   9.915  23.694  0.00  0.00     0.003 A 
ENDBRANCH  15  17
ENDBRANCH  14  15
ENDBRANCH  13  14
ENDBRANCH   5  13
BRANCH   8  23
ATOM     23  C   UNL d   1     -48.628  12.603  23.498  0.00  0.00     0.082 C 
BRANCH  23  24
ATOM     24  C   UNL d   1     -49.308  12.568  23.035  0.00  0.00     0.019 C 
BRANCH  24  25
ATOM     25  C   UNL d   1     -49.843  11.991  23.129  0.00  0.00     0.002 C 
ATOM     26  C   UNL d   1     -49.823  11.331  22.635  0.00  0.00     0.000 C 
ATOM     27  C   UNL d   1     -50.401  12.036  23.693  0.00  0.00     0.000 C 
ENDBRANCH  24  25
ENDBRANCH  23  24
ENDBRANCH   8  23
TORSDOF 7
ENDMDL
