MODEL 1
REMARK VINA RESULT:       8.8      0.000      0.000
REMARK  5 active torsions:
REMARK  status: ('A' for Active; 'I' for Inactive)
REMARK    1  A    between atoms: C_10  and  C_1 
REMARK    2  A    between atoms: C_16  and  C_2 
REMARK    3  A    between atoms: C_7  and  C_14 
REMARK    4  A    between atoms: C_13  and  C_10 
REMARK    5  A    between atoms: C_14  and  C_13 
ROOT
ATOM      1  C   UNL d   1     -42.311-122.124 -50.157  0.00  0.00     0.097 A 
ATOM      2  C   UNL d   1     -42.727-122.568 -49.568  0.00  0.00     0.009 A 
ATOM      3  C   UNL d   1     -41.538-121.885 -50.025  0.00  0.00     0.282 A 
ATOM      4  C   UNL d   1     -42.337-122.743 -48.882  0.00  0.00     0.019 A 
ATOM      5  N   UNL d   1     -41.149-122.079 -49.299  0.00  0.00    -0.208 NA
ATOM      6  C   UNL d   1     -41.564-122.503 -48.751  0.00  0.00     0.085 A 
ATOM      7  C   UNL d   1     -42.752-123.182 -48.302  0.00  0.00     0.013 A 
ATOM      8  C   UNL d   1     -41.174-122.693 -48.033  0.00  0.00     0.020 A 
ATOM      9  O   UNL d   1     -41.123-121.445 -50.606  0.00  0.00    -0.265 OA
ATOM     10  C   UNL d   1     -42.363-123.377 -47.576  0.00  0.00     0.058 A 
ATOM     11  C   UNL d   1     -41.590-123.137 -47.444  0.00  0.00     0.013 A 
ATOM     12 CL   UNL d   1     -42.778-123.817 -46.995  0.00  0.00    -0.082 Cl
ENDROOT
BRANCH   1  13
ATOM     13  C   UNL d   1     -42.701-121.934 -50.875  0.00  0.00     0.200 C 
ATOM     14  O   UNL d   1     -43.352-121.378 -50.883  0.00  0.00    -0.286 OA
BRANCH  13  15
ATOM     15  C   UNL d   1     -42.468-122.274 -51.584  0.00  0.00     0.045 C 
BRANCH  15  16
ATOM     16  C   UNL d   1     -42.190-121.835 -52.240  0.00  0.00     0.042 C 
BRANCH  16  17
ATOM     17  C   UNL d   1     -42.042-122.199 -52.980  0.00  0.00     0.163 A 
ATOM     18  N   UNL d   1     -41.729-122.926 -53.171  0.00  0.00    -0.225 NA
ATOM     19  C   UNL d   1     -41.722-122.970 -53.991  0.00  0.00     0.101 A 
ATOM     20  C   UNL d   1     -41.467-123.576 -54.486  0.00  0.00     0.021 A 
ATOM     21  C   UNL d   1     -42.017-122.302 -54.296  0.00  0.00     0.101 A 
ATOM     22  C   UNL d   1     -41.525-123.468 -55.319  0.00  0.00     0.002 A 
ATOM     23  C   UNL d   1     -41.835-122.765 -55.602  0.00  0.00     0.002 A 
ATOM     24  C   UNL d   1     -42.076-122.191 -55.065  0.00  0.00     0.021 A 
ATOM     25  N   UNL d   1     -42.236-121.777 -53.657  0.00  0.00    -0.225 NA
ENDBRANCH  16  17
ENDBRANCH  15  16
ENDBRANCH  13  15
ENDBRANCH   1  13
BRANCH   2  26
ATOM     26  C   UNL d   1     -43.534-122.818 -49.705  0.00  0.00     0.000 A 
ATOM     27  C   UNL d   1     -44.129-122.252 -49.626  0.00  0.00     0.000 A 
ATOM     28  C   UNL d   1     -44.916-122.450 -49.748  0.00  0.00     0.000 A 
ATOM     29  C   UNL d   1     -45.071-123.294 -49.967  0.00  0.00     0.000 A 
ATOM     30  C   UNL d   1     -44.481-123.816 -50.037  0.00  0.00     0.000 A 
ATOM     31  C   UNL d   1     -43.675-123.566 -49.899  0.00  0.00     0.000 A 
ENDBRANCH   2  26
TORSDOF 5
ENDMDL
MODEL 2
REMARK VINA RESULT:       9.4      2.056      5.405
REMARK  5 active torsions:
REMARK  status: ('A' for Active; 'I' for Inactive)
REMARK    1  A    between atoms: C_10  and  C_1 
REMARK    2  A    between atoms: C_16  and  C_2 
REMARK    3  A    between atoms: C_7  and  C_14 
REMARK    4  A    between atoms: C_13  and  C_10 
REMARK    5  A    between atoms: C_14  and  C_13 
ROOT
ATOM      1  C   UNL d   1     -41.465-122.585 -52.379  0.00  0.00     0.097 A 
ATOM      2  C   UNL d   1     -41.524-122.167 -53.113  0.00  0.00     0.009 A 
ATOM      3  C   UNL d   1     -41.320-123.392 -52.374  0.00  0.00     0.282 A 
ATOM      4  C   UNL d   1     -41.432-122.589 -53.796  0.00  0.00     0.019 A 
ATOM      5  N   UNL d   1     -41.227-123.814 -53.102  0.00  0.00    -0.208 NA
ATOM      6  C   UNL d   1     -41.286-123.395 -53.790  0.00  0.00     0.085 A 
ATOM      7  C   UNL d   1     -41.491-122.170 -54.519  0.00  0.00     0.013 A 
ATOM      8  C   UNL d   1     -41.194-123.817 -54.508  0.00  0.00     0.020 A 
ATOM      9  O   UNL d   1     -41.261-123.810 -51.649  0.00  0.00    -0.265 OA
ATOM     10  C   UNL d   1     -41.398-122.592 -55.247  0.00  0.00     0.058 A 
ATOM     11  C   UNL d   1     -41.252-123.399 -55.242  0.00  0.00     0.013 A 
ATOM     12 CL   UNL d   1     -41.457-122.174 -55.972  0.00  0.00    -0.082 Cl
ENDROOT
BRANCH   1  13
ATOM     13  C   UNL d   1     -41.558-122.163 -51.660  0.00  0.00     0.200 C 
ATOM     14  O   UNL d   1     -41.132-121.433 -51.525  0.00  0.00    -0.286 OA
BRANCH  13  15
ATOM     15  C   UNL d   1     -42.058-122.439 -51.071  0.00  0.00     0.045 C 
BRANCH  15  16
ATOM     16  C   UNL d   1     -42.290-121.983 -50.409  0.00  0.00     0.042 C 
BRANCH  16  17
ATOM     17  C   UNL d   1     -42.402-122.331 -49.655  0.00  0.00     0.163 A 
ATOM     18  N   UNL d   1     -43.029-122.741 -49.337  0.00  0.00    -0.225 NA
ATOM     19  C   UNL d   1     -42.813-122.945 -48.572  0.00  0.00     0.101 A 
ATOM     20  C   UNL d   1     -43.230-123.361 -47.997  0.00  0.00     0.021 A 
ATOM     21  C   UNL d   1     -42.085-122.675 -48.420  0.00  0.00     0.101 A 
ATOM     22  C   UNL d   1     -42.865-123.491 -47.249  0.00  0.00     0.002 A 
ATOM     23  C   UNL d   1     -42.111-123.199 -47.124  0.00  0.00     0.002 A 
ATOM     24  C   UNL d   1     -41.738-122.789 -47.731  0.00  0.00     0.021 A 
ATOM     25  N   UNL d   1     -41.789-122.267 -49.112  0.00  0.00    -0.225 NA
ENDBRANCH  16  17
ENDBRANCH  15  16
ENDBRANCH  13  15
ENDBRANCH   1  13
BRANCH   2  26
ATOM     26  C   UNL d   1     -41.676-121.324 -53.119  0.00  0.00     0.000 A 
ATOM     27  C   UNL d   1     -42.406-121.069 -53.407  0.00  0.00     0.000 A 
ATOM     28  C   UNL d   1     -42.592-120.270 -53.430  0.00  0.00     0.000 A 
ATOM     29  C   UNL d   1     -41.966-119.720 -53.129  0.00  0.00     0.000 A 
ATOM     30  C   UNL d   1     -41.275-119.992 -52.858  0.00  0.00     0.000 A 
ATOM     31  C   UNL d   1     -41.123-120.833 -52.853  0.00  0.00     0.000 A 
ENDBRANCH   2  26
TORSDOF 5
ENDMDL
