MODEL 1
REMARK VINA RESULT:      48.2      0.000      0.000
REMARK  3 active torsions:
REMARK  status: ('A' for Active; 'I' for Inactive)
REMARK    1  A    between atoms: S_3  and  N_1 
REMARK    2  A    between atoms: C_8  and  C_4 
REMARK    3  A    between atoms: C_7  and  C_5 
ROOT
ATOM      1  N   UNL d   1     -55.070-101.756 -43.278  0.00  0.00    -0.155 N 
ATOM      2  N   UNL d   1     -55.071-102.225 -42.588  0.00  0.00    -0.155 NA
ATOM      3  C   UNL d   1     -54.896-100.996 -43.063  0.00  0.00     0.096 A 
ATOM      4  C   UNL d   1     -54.894-101.728 -41.959  0.00  0.00     0.110 A 
ATOM      5  C   UNL d   1     -54.781-100.947 -42.253  0.00  0.00     0.041 A 
ENDROOT
BRANCH   3   6
ATOM      6  C   UNL d   1     -54.840-100.358 -43.583  0.00  0.00     0.018 A 
ATOM      7  C   UNL d   1     -54.831 -99.593 -43.297  0.00  0.00     0.002 A 
ATOM      8  C   UNL d   1     -54.878 -99.460 -42.485  0.00  0.00     0.000 C 
ATOM      9  C   UNL d   1     -54.775 -98.955 -43.817  0.00  0.00     0.000 A 
ATOM     10  C   UNL d   1     -54.728 -99.082 -44.623  0.00  0.00     0.000 A 
ATOM     11  C   UNL d   1     -54.737 -99.856 -44.919  0.00  0.00     0.000 A 
ATOM     12  C   UNL d   1     -54.793-100.494 -44.399  0.00  0.00     0.002 A 
ENDBRANCH   3   6
BRANCH   1  13
ATOM     13  S   UNL d   1     -55.221-102.035 -44.022  0.00  0.00     0.266 S 
ATOM     14  O   UNL d   1     -55.701-101.395 -44.160  0.00  0.00    -0.203 OA
ATOM     15  O   UNL d   1     -54.727-102.705 -43.896  0.00  0.00    -0.203 OA
ATOM     16  C   UNL d   1     -55.376-102.340 -44.814  0.00  0.00     0.165 C 
ENDBRANCH   1  13
BRANCH   4  17
ATOM     17  C   UNL d   1     -54.832-101.941 -41.165  0.00  0.00     0.049 A 
ATOM     18  S   UNL d   1     -54.827-102.713 -40.901  0.00  0.00    -0.085 SA
ATOM     19  C   UNL d   1     -54.757-102.689 -40.078  0.00  0.00     0.035 A 
ATOM     20  C   UNL d   1     -54.718-101.898 -39.832  0.00  0.00     0.007 A 
ATOM     21  C   UNL d   1     -54.764-101.450 -40.499  0.00  0.00     0.009 A 
ENDBRANCH   4  17
TORSDOF 3
ENDMDL
