MODEL 1
REMARK VINA RESULT:      -5.2      0.000      0.000
REMARK  1 active torsions:
REMARK  status: ('A' for Active; 'I' for Inactive)
REMARK    1  A    between atoms: C_9  and  C_3 
ROOT
ATOM      1  C   UNL d   1     -41.638-122.389 -53.389  0.00  0.00     0.171 A 
ATOM      2  N   UNL d   1     -41.505-123.103 -52.998  0.00  0.00    -0.212 N 
ATOM      3  C   UNL d   1     -41.889-122.389 -54.177  0.00  0.00     0.121 A 
ATOM      4  N   UNL d   1     -41.623-123.817 -53.394  0.00  0.00    -0.162 NA
ATOM      5  N   UNL d   1     -41.522-121.675 -52.997  0.00  0.00    -0.226 NA
ATOM      6  C   UNL d   1     -41.256-123.103 -52.214  0.00  0.00     0.086 A 
ATOM      7  C   UNL d   1     -41.873-123.817 -54.183  0.00  0.00     0.130 A 
ATOM      8  C   UNL d   1     -41.139-122.389 -51.818  0.00  0.00     0.038 A 
ATOM      9  C   UNL d   1     -41.272-121.675 -52.209  0.00  0.00     0.085 A 
ATOM     10  C   UNL d   1     -41.123-123.817 -51.823  0.00  0.00     0.021 C 
ATOM     11  C   UNL d   1     -41.154-120.961 -51.812  0.00  0.00     0.021 C 
ENDROOT
BRANCH   3  12
ATOM     12  C   UNL d   1     -42.071-121.800 -54.728  0.00  0.00     0.215 C 
ATOM     13  O   UNL d   1     -42.833-121.483 -54.750  0.00  0.00    -0.644 OA
ATOM     14  O   UNL d   1     -41.494-121.529 -55.253  0.00  0.00    -0.644 OA
ENDBRANCH   3  12
TORSDOF 1
ENDMDL
MODEL 2
REMARK VINA RESULT:      -4.4      1.567      2.425
REMARK  1 active torsions:
REMARK  status: ('A' for Active; 'I' for Inactive)
REMARK    1  A    between atoms: C_9  and  C_3 
ROOT
ATOM      1  C   UNL d   1     -41.666-122.482 -52.931  0.00  0.00     0.171 A 
ATOM      2  N   UNL d   1     -41.432-123.150 -53.355  0.00  0.00    -0.212 N 
ATOM      3  C   UNL d   1     -41.628-122.482 -52.105  0.00  0.00     0.121 A 
ATOM      4  N   UNL d   1     -41.161-123.817 -52.954  0.00  0.00    -0.162 NA
ATOM      5  N   UNL d   1     -41.938-121.814 -53.328  0.00  0.00    -0.226 NA
ATOM      6  C   UNL d   1     -41.470-123.150 -54.177  0.00  0.00     0.086 A 
ATOM      7  C   UNL d   1     -41.123-123.817 -52.128  0.00  0.00     0.130 A 
ATOM      8  C   UNL d   1     -41.742-122.482 -54.578  0.00  0.00     0.038 A 
ATOM      9  C   UNL d   1     -41.976-121.814 -54.154  0.00  0.00     0.085 A 
ATOM     10  C   UNL d   1     -41.237-123.817 -54.601  0.00  0.00     0.021 C 
ATOM     11  C   UNL d   1     -42.247-121.146 -54.555  0.00  0.00     0.021 C 
ENDROOT
BRANCH   3  12
ATOM     12  C   UNL d   1     -41.809-121.931 -51.516  0.00  0.00     0.215 C 
ATOM     13  O   UNL d   1     -42.558-121.939 -51.167  0.00  0.00    -0.644 OA
ATOM     14  O   UNL d   1     -41.246-121.376 -51.277  0.00  0.00    -0.644 OA
ENDBRANCH   3  12
TORSDOF 1
ENDMDL
