MODEL 1
REMARK VINA RESULT:      -3.2      0.000      0.000
REMARK  6 active torsions:
REMARK  status: ('A' for Active; 'I' for Inactive)
REMARK    1  A    between atoms: C_10  and  C_1 
REMARK    2  A    between atoms: C_7  and  O_9 
REMARK       I    between atoms: N_12  and  C_7 
REMARK    3  A    between atoms: O_9  and  C_14 
REMARK    4  A    between atoms: C_24  and  N_12 
REMARK    5  A    between atoms: C_25  and  N_12 
REMARK    6  A    between atoms: O_23  and  C_20 
ROOT
ATOM      1  C   UNL d   1      32.867  21.542 -21.515  0.00  0.00     0.062 A 
ATOM      2  C   UNL d   1      32.794  20.721 -21.375  0.00  0.00     0.199 A 
ATOM      3  C   UNL d   1      33.055  21.812 -22.286  0.00  0.00     0.103 A 
ATOM      4  C   UNL d   1      32.903  20.180 -21.982  0.00  0.00     0.062 A 
ATOM      5  C   UNL d   1      33.090  20.449 -22.749  0.00  0.00     0.105 A 
ATOM      6  O   UNL d   1      33.167  21.261 -22.905  0.00  0.00    -0.307 OA
ATOM      7  C   UNL d   1      33.202  19.903 -23.367  0.00  0.00     0.050 A 
ATOM      8  C   UNL d   1      32.832  19.362 -21.850  0.00  0.00     0.007 A 
ATOM      9  O   UNL d   1      32.608  20.459 -20.614  0.00  0.00    -0.286 OA
ATOM     10  C   UNL d   1      33.129  19.095 -23.223  0.00  0.00     0.107 A 
ATOM     11  C   UNL d   1      32.944  18.825 -22.464  0.00  0.00     0.025 A 
ATOM     12  C   UNL d   1      33.128  22.620 -22.431  0.00  0.00     0.027 C 
ENDROOT
BRANCH   1  13
ATOM     13  C   UNL d   1      32.756  22.081 -20.904  0.00  0.00     0.005 A 
ATOM     14  C   UNL d   1      32.155  22.650 -20.960  0.00  0.00     0.002 A 
ATOM     15  C   UNL d   1      32.044  23.190 -20.349  0.00  0.00     0.024 A 
ATOM     16  C   UNL d   1      32.529  23.165 -19.683  0.00  0.00     0.094 A 
ATOM     17  C   UNL d   1      33.133  22.592 -19.627  0.00  0.00     0.024 A 
ATOM     18  C   UNL d   1      33.241  22.056 -20.238  0.00  0.00     0.002 A 
BRANCH  16  19
ATOM     19  O   UNL d   1      32.421  23.701 -19.071  0.00  0.00    -0.328 OA
ATOM     20  C   UNL d   1      32.601  23.490 -18.295  0.00  0.00     0.181 C 
ENDBRANCH  16  19
ENDBRANCH   1  13
BRANCH  10  21
ATOM     21  O   UNL d   1      33.240  18.556 -23.837  0.00  0.00    -0.259 OA
BRANCH  21  22
ATOM     22  C   UNL d   1      32.596  18.307 -24.286  0.00  0.00     0.377 C 
ATOM     23  N   UNL d   1      32.529  17.514 -24.503  0.00  0.00    -0.252 N 
ATOM     24  O   UNL d   1      32.019  18.850 -24.520  0.00  0.00    -0.237 OA
BRANCH  23  25
ATOM     25  C   UNL d   1      33.107  16.965 -24.271  0.00  0.00     0.085 C 
ATOM     26  C   UNL d   1      32.926  16.164 -24.192  0.00  0.00     0.021 C 
ENDBRANCH  23  25
BRANCH  23  27
ATOM     27  C   UNL d   1      31.883  17.262 -24.954  0.00  0.00     0.085 C 
ATOM     28  C   UNL d   1      31.254  16.852 -24.591  0.00  0.00     0.021 C 
ENDBRANCH  23  27
ENDBRANCH  21  22
ENDBRANCH  10  21
TORSDOF 6
ENDMDL
MODEL 2
REMARK VINA RESULT:      -2.0      1.674      5.641
REMARK  6 active torsions:
REMARK  status: ('A' for Active; 'I' for Inactive)
REMARK    1  A    between atoms: C_10  and  C_1 
REMARK    2  A    between atoms: C_7  and  O_9 
REMARK       I    between atoms: N_12  and  C_7 
REMARK    3  A    between atoms: O_9  and  C_14 
REMARK    4  A    between atoms: C_24  and  N_12 
REMARK    5  A    between atoms: C_25  and  N_12 
REMARK    6  A    between atoms: O_23  and  C_20 
ROOT
ATOM      1  C   UNL d   1      32.699  18.993 -23.677  0.00  0.00     0.062 A 
ATOM      2  C   UNL d   1      32.738  19.156 -22.859  0.00  0.00     0.199 A 
ATOM      3  C   UNL d   1      32.789  19.621 -24.226  0.00  0.00     0.103 A 
ATOM      4  C   UNL d   1      32.862  19.920 -22.587  0.00  0.00     0.062 A 
ATOM      5  C   UNL d   1      32.952  20.545 -23.133  0.00  0.00     0.105 A 
ATOM      6  O   UNL d   1      32.915  20.400 -23.950  0.00  0.00    -0.307 OA
ATOM      7  C   UNL d   1      33.078  21.321 -22.861  0.00  0.00     0.050 A 
ATOM      8  C   UNL d   1      32.902  20.089 -21.774  0.00  0.00     0.007 A 
ATOM      9  O   UNL d   1      32.650  18.535 -22.321  0.00  0.00    -0.286 OA
ATOM     10  C   UNL d   1      33.115  21.475 -22.053  0.00  0.00     0.107 A 
ATOM     11  C   UNL d   1      33.028  20.859 -21.509  0.00  0.00     0.025 A 
ATOM     12  C   UNL d   1      32.751  19.467 -25.034  0.00  0.00     0.027 C 
ENDROOT
BRANCH   1  13
ATOM     13  C   UNL d   1      32.575  18.226 -23.945  0.00  0.00     0.005 A 
ATOM     14  C   UNL d   1      33.223  17.746 -24.138  0.00  0.00     0.002 A 
ATOM     15  C   UNL d   1      33.098  16.978 -24.406  0.00  0.00     0.024 A 
ATOM     16  C   UNL d   1      32.331  16.687 -24.482  0.00  0.00     0.094 A 
ATOM     17  C   UNL d   1      31.679  17.169 -24.288  0.00  0.00     0.024 A 
ATOM     18  C   UNL d   1      31.807  17.934 -24.021  0.00  0.00     0.002 A 
BRANCH  16  19
ATOM     19  O   UNL d   1      32.202  15.921 -24.749  0.00  0.00    -0.328 OA
ATOM     20  C   UNL d   1      31.437  15.653 -24.892  0.00  0.00     0.181 C 
ENDBRANCH  16  19
ENDBRANCH   1  13
BRANCH  10  21
ATOM     21  O   UNL d   1      33.240  22.246 -21.787  0.00  0.00    -0.259 OA
BRANCH  21  22
ATOM     22  C   UNL d   1      32.596  22.731 -21.618  0.00  0.00     0.377 C 
ATOM     23  N   UNL d   1      32.551  23.115 -20.889  0.00  0.00    -0.252 N 
ATOM     24  O   UNL d   1      31.997  22.834 -22.177  0.00  0.00    -0.237 OA
BRANCH  23  25
ATOM     25  C   UNL d   1      33.152  23.015 -20.325  0.00  0.00     0.085 C 
ATOM     26  C   UNL d   1      33.078  23.329 -19.565  0.00  0.00     0.021 C 
ENDBRANCH  23  25
BRANCH  23  27
ATOM     27  C   UNL d   1      31.905  23.603 -20.718  0.00  0.00     0.085 C 
ATOM     28  C   UNL d   1      31.509  23.530 -19.988  0.00  0.00     0.021 C 
ENDBRANCH  23  27
ENDBRANCH  21  22
ENDBRANCH  10  21
TORSDOF 6
ENDMDL
