MODEL 1
REMARK VINA RESULT:      36.3      0.000      0.000
REMARK  3 active torsions:
REMARK  status: ('A' for Active; 'I' for Inactive)
REMARK    1  A    between atoms: C_9  and  C_3 
REMARK    2  A    between atoms: C_8  and  C_5 
REMARK    3  A    between atoms: O_19  and  C_9 
ROOT
ATOM      1  N   UNL d   1      14.029  13.151  -2.337  0.00  0.00    -0.278 N 
ATOM      2  C   UNL d   1      13.926  13.758  -2.886  0.00  0.00     0.178 A 
ATOM      3  C   UNL d   1      14.575  14.089  -1.404  0.00  0.00     0.075 A 
ATOM      4  N   UNL d   1      14.147  14.544  -2.704  0.00  0.00    -0.223 NA
ATOM      5  C   UNL d   1      14.354  13.323  -1.598  0.00  0.00     0.178 A 
ATOM      6  C   UNL d   1      14.472  14.695  -1.953  0.00  0.00     0.086 A 
ATOM      7  C   UNL d   1      13.808  12.385  -2.532  0.00  0.00     0.263 A 
ATOM      8  S   UNL d   1      13.601  13.606  -3.637  0.00  0.00    -0.050 SA
ATOM      9  C   UNL d   1      13.482  12.211  -3.273  0.00  0.00     0.068 A 
ATOM     10  O   UNL d   1      13.910  11.779  -1.983  0.00  0.00    -0.267 OA
ATOM     11  C   UNL d   1      13.379  12.818  -3.822  0.00  0.00     0.043 A 
ATOM     12  C   UNL d   1      14.699  15.510  -1.768  0.00  0.00     0.021 C 
ENDROOT
BRANCH   5  13
ATOM     13  C   UNL d   1      14.456  12.717  -1.050  0.00  0.00     0.024 A 
ATOM     14  S   UNL d   1      13.942  12.348  -0.520  0.00  0.00    -0.089 SA
ATOM     15  C   UNL d   1      14.358  11.779  -0.114  0.00  0.00     0.035 A 
ATOM     16  C   UNL d   1      15.119  11.791  -0.382  0.00  0.00     0.007 A 
ATOM     17  C   UNL d   1      15.196  12.354  -0.951  0.00  0.00     0.004 A 
ENDBRANCH   5  13
BRANCH   3  18
ATOM     18  C   UNL d   1      14.908  14.275  -0.650  0.00  0.00     0.295 C 
ATOM     19  O   UNL d   1      14.401  14.424  -0.019  0.00  0.00    -0.259 OA
BRANCH  18  20
ATOM     20  O   UNL d   1      15.720  14.312  -0.536  0.00  0.00    -0.296 OA
ATOM     21  C   UNL d   1      16.051  14.893  -0.059  0.00  0.00     0.185 C 
ENDBRANCH  18  20
ENDBRANCH   3  18
TORSDOF 3
ENDMDL
MODEL 2
REMARK VINA RESULT:      37.7      0.988      2.703
REMARK  3 active torsions:
REMARK  status: ('A' for Active; 'I' for Inactive)
REMARK    1  A    between atoms: C_9  and  C_3 
REMARK    2  A    between atoms: C_8  and  C_5 
REMARK    3  A    between atoms: O_19  and  C_9 
ROOT
ATOM      1  N   UNL d   1      14.745  14.148  -1.327  0.00  0.00    -0.278 N 
ATOM      2  C   UNL d   1      14.699  14.753  -1.885  0.00  0.00     0.178 A 
ATOM      3  C   UNL d   1      14.222  13.224  -2.286  0.00  0.00     0.075 A 
ATOM      4  N   UNL d   1      14.413  14.605  -2.657  0.00  0.00    -0.223 NA
ATOM      5  C   UNL d   1      14.505  13.386  -1.533  0.00  0.00     0.178 A 
ATOM      6  C   UNL d   1      14.176  13.830  -2.844  0.00  0.00     0.086 A 
ATOM      7  C   UNL d   1      15.028  14.310  -0.574  0.00  0.00     0.263 A 
ATOM      8  S   UNL d   1      14.937  15.528  -1.697  0.00  0.00    -0.050 SA
ATOM      9  C   UNL d   1      15.269  15.074  -0.364  0.00  0.00     0.068 A 
ATOM     10  O   UNL d   1      15.073  13.705  -0.016  0.00  0.00    -0.267 OA
ATOM     11  C   UNL d   1      15.224  15.679  -0.923  0.00  0.00     0.043 A 
ATOM     12  C   UNL d   1      13.881  13.680  -3.644  0.00  0.00     0.021 C 
ENDROOT
BRANCH   5  13
ATOM     13  C   UNL d   1      14.550  12.781  -0.976  0.00  0.00     0.024 A 
ATOM     14  S   UNL d   1      15.169  12.298  -0.723  0.00  0.00    -0.089 SA
ATOM     15  C   UNL d   1      14.883  11.794  -0.151  0.00  0.00     0.035 A 
ATOM     16  C   UNL d   1      14.101  11.957  -0.048  0.00  0.00     0.007 A 
ATOM     17  C   UNL d   1      13.881  12.554  -0.540  0.00  0.00     0.004 A 
ENDBRANCH   5  13
BRANCH   3  18
ATOM     18  C   UNL d   1      13.973  12.448  -2.508  0.00  0.00     0.295 C 
ATOM     19  O   UNL d   1      14.520  11.832  -2.476  0.00  0.00    -0.259 OA
BRANCH  18  20
ATOM     20  O   UNL d   1      13.205  12.296  -2.754  0.00  0.00    -0.296 OA
ATOM     21  C   UNL d   1      13.058  11.787  -3.382  0.00  0.00     0.185 C 
ENDBRANCH  18  20
ENDBRANCH   3  18
TORSDOF 3
ENDMDL
