MODEL 1
REMARK VINA RESULT:      43.3      0.000      0.000
REMARK  3 active torsions:
REMARK  status: ('A' for Active; 'I' for Inactive)
REMARK    1  A    between atoms: N_4  and  C_1 
REMARK    2  A    between atoms: C_5  and  C_3 
REMARK       I    between atoms: C_8  and  N_4 
REMARK    3  A    between atoms: C_9  and  C_8 
ROOT
ATOM      1  C   UNL d   1      13.562  13.243  -3.881  0.00  0.00     0.204 A 
ATOM      2  S   UNL d   1      13.686  13.288  -3.143  0.00  0.00    -0.031 SA
ATOM      3  C   UNL d   1      13.627  12.470  -2.791  0.00  0.00     0.119 A 
ATOM      4  N   UNL d   1      13.409  12.418  -4.109  0.00  0.00    -0.123 NA
ATOM      5  N   UNL d   1      13.452  11.985  -3.454  0.00  0.00    -0.143 NA
ENDROOT
BRANCH   3   6
ATOM      6  C   UNL d   1      13.720  12.277  -2.037  0.00  0.00     0.081 A 
ATOM      7  C   UNL d   1      14.778  12.240  -2.015  0.00  0.00     0.023 A 
ATOM      8  C   UNL d   1      15.100  12.046  -1.281  0.00  0.00     0.045 A 
ATOM      9  C   UNL d   1      14.543  11.898  -0.629  0.00  0.00    -0.022 A 
ATOM     10  C   UNL d   1      14.702  11.780  -0.177  0.00  0.00    -0.022 A 
ATOM     11  C   UNL d   1      13.745  11.921  -0.622  0.00  0.00    -0.008 A 
ATOM     12  C   UNL d   1      13.162  12.146  -1.448  0.00  0.00    -0.017 A 
ATOM     13  C   UNL d   1      13.254  11.782  -0.014  0.00  0.00    -0.001 A 
ATOM     14  C   UNL d   1      13.932  11.873  -0.455  0.00  0.00    -0.008 A 
ATOM     15  C   UNL d   1      13.610  12.068  -1.190  0.00  0.00    -0.017 A 
ENDBRANCH   3   6
BRANCH   1  16
ATOM     16  N   UNL d   1      13.546  13.801  -4.481  0.00  0.00    -0.248 N 
ATOM     17  C   UNL d   1      13.555  14.616  -4.352  0.00  0.00     0.289 C 
ATOM     18  O   UNL d   1      13.584  14.898  -3.562  0.00  0.00    -0.264 OA
ATOM     19  C   UNL d   1      13.519  13.551  -5.228  0.00  0.00     0.104 C 
BRANCH  17  20
ATOM     20  C   UNL d   1      13.537  15.152  -4.983  0.00  0.00     0.156 A 
ATOM     21  O   UNL d   1      13.951  15.185  -5.701  0.00  0.00    -0.300 OA
ATOM     22  C   UNL d   1      13.677  15.884  -6.113  0.00  0.00     0.123 A 
ATOM     23  C   UNL d   1      13.132  16.249  -5.670  0.00  0.00     0.029 A 
ATOM     24  C   UNL d   1      13.032  15.820  -4.978  0.00  0.00     0.032 A 
ENDBRANCH  17  20
ENDBRANCH   1  16
TORSDOF 3
ENDMDL
