MODEL 1
REMARK VINA RESULT:      69.6      0.000      0.000
REMARK  4 active torsions:
REMARK  status: ('A' for Active; 'I' for Inactive)
REMARK    1  A    between atoms: C_2  and  S_1 
REMARK    2  A    between atoms: N_7  and  S_1 
REMARK    3  A    between atoms: C_3  and  C_12 
REMARK    4  A    between atoms: C_15  and  N_7 
ROOT
ATOM      1  C   UNL d   1     -49.236  27.711  34.637  0.00  0.00     0.024 A 
ATOM      2  C   UNL d   1     -48.109  28.756  35.261  0.00  0.00     0.094 A 
ATOM      3  C   UNL d   1     -49.236  27.908  35.437  0.00  0.00     0.004 A 
ATOM      4  C   UNL d   1     -48.664  28.041  34.139  0.00  0.00     0.004 A 
ATOM      5  C   UNL d   1     -48.681  28.423  35.744  0.00  0.00     0.020 A 
ATOM      6  C   UNL d   1     -48.104  28.559  34.444  0.00  0.00     0.020 A 
ENDROOT
BRANCH   2   7
ATOM      7  N   UNL d   1     -47.553  29.271  35.564  0.00  0.00    -0.158 NA
BRANCH   7   8
ATOM      8  S   UNL d   1     -47.566  30.071  35.341  0.00  0.00     0.287 S 
ATOM      9  O   UNL d   1     -48.289  30.169  35.723  0.00  0.00    -0.198 OA
ATOM     10  O   UNL d   1     -46.842  29.973  34.960  0.00  0.00    -0.198 OA
BRANCH   8  11
ATOM     11  C   UNL d   1     -47.584  30.864  35.124  0.00  0.00     0.135 A 
ATOM     12  C   UNL d   1     -47.996  31.111  34.460  0.00  0.00     0.045 A 
ATOM     13  C   UNL d   1     -48.013  31.901  34.245  0.00  0.00     0.141 A 
ATOM     14  F   UNL d   1     -48.428  32.142  33.577  0.00  0.00    -0.204 F 
ATOM     15  C   UNL d   1     -47.609  32.456  34.703  0.00  0.00     0.032 A 
ATOM     16  C   UNL d   1     -47.190  32.221  35.376  0.00  0.00     0.033 A 
ATOM     17  C   UNL d   1     -47.181  31.419  35.582  0.00  0.00     0.152 A 
ATOM     18  F   UNL d   1     -46.760  31.181  36.258  0.00  0.00    -0.203 F 
ENDBRANCH   8  11
ENDBRANCH   7   8
ENDBRANCH   2   7
BRANCH   1  19
ATOM     19  C   UNL d   1     -49.796  27.191  34.327  0.00  0.00     0.112 A 
ATOM     20  S   UNL d   1     -49.662  26.404  34.139  0.00  0.00    -0.047 SA
ATOM     21  C   UNL d   1     -50.378  26.081  33.841  0.00  0.00     0.130 A 
ATOM     22  N   UNL d   1     -50.575  25.330  33.568  0.00  0.00    -0.236 NA
ATOM     23  C   UNL d   1     -50.947  26.689  33.854  0.00  0.00     0.106 A 
ATOM     24  C   UNL d   1     -51.347  25.184  33.306  0.00  0.00     0.100 A 
ATOM     25  C   UNL d   1     -51.917  25.785  33.317  0.00  0.00     0.022 A 
ATOM     26  C   UNL d   1     -51.716  26.534  33.590  0.00  0.00     0.023 A 
ATOM     27  N   UNL d   1     -50.585  27.377  34.156  0.00  0.00    -0.237 NA
ENDBRANCH   1  19
TORSDOF 4
ENDMDL
MODEL 2
REMARK VINA RESULT:      70.4      1.828      3.024
REMARK  4 active torsions:
REMARK  status: ('A' for Active; 'I' for Inactive)
REMARK    1  A    between atoms: C_2  and  S_1 
REMARK    2  A    between atoms: N_7  and  S_1 
REMARK    3  A    between atoms: C_3  and  C_12 
REMARK    4  A    between atoms: C_15  and  N_7 
ROOT
ATOM      1  C   UNL d   1     -50.934  26.097  33.372  0.00  0.00     0.024 A 
ATOM      2  C   UNL d   1     -49.830  27.335  33.369  0.00  0.00     0.094 A 
ATOM      3  C   UNL d   1     -51.177  26.882  33.307  0.00  0.00     0.004 A 
ATOM      4  C   UNL d   1     -50.127  25.926  33.437  0.00  0.00     0.004 A 
ATOM      5  C   UNL d   1     -50.633  27.491  33.305  0.00  0.00     0.020 A 
ATOM      6  C   UNL d   1     -49.578  26.536  33.435  0.00  0.00     0.020 A 
ENDROOT
BRANCH   2   7
ATOM      7  N   UNL d   1     -49.284  27.941  33.367  0.00  0.00    -0.158 NA
BRANCH   7   8
ATOM      8  S   UNL d   1     -48.980  28.225  34.085  0.00  0.00     0.287 S 
ATOM      9  O   UNL d   1     -49.277  28.975  33.920  0.00  0.00    -0.198 OA
ATOM     10  O   UNL d   1     -48.682  27.475  34.252  0.00  0.00    -0.198 OA
BRANCH   8  11
ATOM     11  C   UNL d   1     -48.680  28.512  34.796  0.00  0.00     0.135 A 
ATOM     12  C   UNL d   1     -48.228  29.195  34.820  0.00  0.00     0.045 A 
ATOM     13  C   UNL d   1     -47.931  29.478  35.528  0.00  0.00     0.141 A 
ATOM     14  F   UNL d   1     -47.477  30.165  35.545  0.00  0.00    -0.204 F 
ATOM     15  C   UNL d   1     -48.089  29.071  36.228  0.00  0.00     0.032 A 
ATOM     16  C   UNL d   1     -48.544  28.380  36.219  0.00  0.00     0.033 A 
ATOM     17  C   UNL d   1     -48.838  28.104  35.496  0.00  0.00     0.152 A 
ATOM     18  F   UNL d   1     -49.296  27.410  35.485  0.00  0.00    -0.203 F 
ENDBRANCH   8  11
ENDBRANCH   7   8
ENDBRANCH   2   7
BRANCH   1  19
ATOM     19  C   UNL d   1     -51.484  25.481  33.374  0.00  0.00     0.112 A 
ATOM     20  S   UNL d   1     -52.297  25.570  33.434  0.00  0.00    -0.047 SA
ATOM     21  C   UNL d   1     -52.644  24.806  33.414  0.00  0.00     0.130 A 
ATOM     22  N   UNL d   1     -53.427  24.552  33.452  0.00  0.00    -0.236 NA
ATOM     23  C   UNL d   1     -52.025  24.254  33.340  0.00  0.00     0.106 A 
ATOM     24  C   UNL d   1     -53.592  23.742  33.417  0.00  0.00     0.100 A 
ATOM     25  C   UNL d   1     -52.979  23.189  33.344  0.00  0.00     0.022 A 
ATOM     26  C   UNL d   1     -52.199  23.446  33.306  0.00  0.00     0.023 A 
ATOM     27  N   UNL d   1     -51.305  24.675  33.316  0.00  0.00    -0.237 NA
ENDBRANCH   1  19
TORSDOF 4
ENDMDL
