MODEL 1
REMARK VINA RESULT:       6.2      0.000      0.000
REMARK  5 active torsions:
REMARK  status: ('A' for Active; 'I' for Inactive)
REMARK    1  A    between atoms: N_6  and  S_1 
REMARK    2  A    between atoms: C_7  and  S_1 
REMARK    3  A    between atoms: C_9  and  C_2 
REMARK       I    between atoms: N_16  and  C_9 
REMARK    4  A    between atoms: C_26  and  N_16 
REMARK    5  A    between atoms: C_18  and  C_26 
ROOT
ATOM      1  C   UNL d   1     -41.357-122.143 -51.425  0.00  0.00     0.158 A 
ATOM      2  C   UNL d   1     -41.625-121.641 -52.026  0.00  0.00     0.029 A 
ATOM      3  O   UNL d   1     -41.217-122.879 -51.755  0.00  0.00    -0.302 OA
ATOM      4  C   UNL d   1     -41.641-122.084 -52.709  0.00  0.00     0.026 A 
ATOM      5  C   UNL d   1     -41.837-122.416 -54.096  0.00  0.00     0.104 A 
ATOM      6  C   UNL d   1     -41.391-122.852 -52.554  0.00  0.00     0.100 A 
ATOM      7  C   UNL d   1     -41.867-121.863 -53.488  0.00  0.00     0.015 A 
ATOM      8  C   UNL d   1     -41.582-123.194 -53.931  0.00  0.00     0.015 A 
ATOM      9  C   UNL d   1     -41.362-123.401 -53.161  0.00  0.00     0.025 A 
ATOM     10  C   UNL d   1     -41.830-120.848 -51.934  0.00  0.00     0.002 C 
ENDROOT
BRANCH   1  11
ATOM     11  C   UNL d   1     -41.278-121.856 -50.657  0.00  0.00     0.302 C 
ATOM     12  N   UNL d   1     -41.221-122.385 -50.025  0.00  0.00    -0.203 NA
ATOM     13  O   UNL d   1     -41.253-121.050 -50.505  0.00  0.00    -0.263 OA
BRANCH  12  14
ATOM     14  C   UNL d   1     -41.142-122.108 -49.250  0.00  0.00     0.129 C 
BRANCH  14  15
ATOM     15  C   UNL d   1     -41.537-122.487 -48.620  0.00  0.00     0.144 A 
ATOM     16  O   UNL d   1     -42.344-122.688 -48.695  0.00  0.00    -0.301 OA
ATOM     17  C   UNL d   1     -42.728-123.061 -48.074  0.00  0.00     0.123 A 
ATOM     18  C   UNL d   1     -43.528-123.266 -48.136  0.00  0.00     0.027 A 
ATOM     19  C   UNL d   1     -42.328-123.237 -47.379  0.00  0.00     0.123 A 
ATOM     20  C   UNL d   1     -43.923-123.639 -47.519  0.00  0.00     0.002 A 
ATOM     21  C   UNL d   1     -43.505-123.811 -46.824  0.00  0.00     0.002 A 
ATOM     22  C   UNL d   1     -42.712-123.613 -46.751  0.00  0.00     0.027 A 
ATOM     23  O   UNL d   1     -41.521-123.030 -47.317  0.00  0.00    -0.301 OA
ATOM     24  C   UNL d   1     -41.126-122.660 -47.926  0.00  0.00     0.149 A 
ENDBRANCH  14  15
ENDBRANCH  12  14
ENDBRANCH   1  11
BRANCH   5  25
ATOM     25  S   UNL d   1     -42.059-122.198 -54.864  0.00  0.00     0.272 S 
ATOM     26  O   UNL d   1     -41.291-122.357 -55.132  0.00  0.00    -0.200 OA
ATOM     27  O   UNL d   1     -42.838-122.035 -54.596  0.00  0.00    -0.200 OA
BRANCH  25  28
ATOM     28  N   UNL d   1     -42.284-121.976 -55.643  0.00  0.00    -0.225 N 
ATOM     29  C   UNL d   1     -41.764-121.526 -56.091  0.00  0.00     0.118 A 
ATOM     30  C   UNL d   1     -41.972-121.301 -56.859  0.00  0.00     0.142 A 
ATOM     31  O   UNL d   1     -42.724-121.539 -57.177  0.00  0.00    -0.300 OA
ATOM     32  C   UNL d   1     -43.233-121.991 -56.710  0.00  0.00     0.142 A 
ATOM     33  C   UNL d   1     -43.011-122.208 -55.948  0.00  0.00     0.118 A 
ENDBRANCH  25  28
ENDBRANCH   5  25
TORSDOF 5
ENDMDL
