MODEL 1
REMARK VINA RESULT:      -4.1      0.000      0.000
REMARK  5 active torsions:
REMARK  status: ('A' for Active; 'I' for Inactive)
REMARK    1  A    between atoms: C_10  and  N_1 
REMARK    2  A    between atoms: C_7  and  C_4 
REMARK    3  A    between atoms: O_16  and  C_9 
REMARK    4  A    between atoms: C_15  and  C_10 
REMARK    5  A    between atoms: O_17  and  C_11 
ROOT
ATOM      1  N   UNL d   1      58.630  -0.442  29.402  0.00  0.00    -0.193 N 
ATOM      2  N   UNL d   1      58.089  -0.620  30.001  0.00  0.00    -0.163 NA
ATOM      3  C   UNL d   1      59.121   0.205  29.490  0.00  0.00     0.281 A 
ATOM      4  C   UNL d   1      58.048  -0.148  30.675  0.00  0.00     0.102 A 
ATOM      5  C   UNL d   1      59.091   0.682  30.153  0.00  0.00     0.064 A 
ATOM      6  C   UNL d   1      58.549   0.503  30.752  0.00  0.00     0.026 A 
ATOM      7  O   UNL d   1      59.662   0.383  28.892  0.00  0.00    -0.265 OA
ENDROOT
BRANCH   4   8
ATOM      8  C   UNL d   1      57.515  -0.323  31.265  0.00  0.00     0.021 A 
ATOM      9  C   UNL d   1      57.513   0.116  31.976  0.00  0.00     0.028 A 
ATOM     10  C   UNL d   1      56.974  -0.066  32.564  0.00  0.00     0.116 A 
ATOM     11  C   UNL d   1      56.431  -0.680  32.462  0.00  0.00     0.116 A 
ATOM     12  C   UNL d   1      56.429  -1.122  31.751  0.00  0.00     0.026 A 
ATOM     13  C   UNL d   1      56.972  -0.936  31.163  0.00  0.00     0.004 A 
BRANCH  10  14
ATOM     14  O   UNL d   1      56.972   0.366  33.263  0.00  0.00    -0.326 OA
ATOM     15  C   UNL d   1      57.671   0.682  33.561  0.00  0.00     0.181 C 
ENDBRANCH  10  14
BRANCH  11  16
ATOM     16  O   UNL d   1      55.885  -0.866  33.053  0.00  0.00    -0.326 OA
ATOM     17  C   UNL d   1      55.733  -1.659  33.227  0.00  0.00     0.181 C 
ENDBRANCH  11  16
ENDBRANCH   4   8
BRANCH   1  18
ATOM     18  C   UNL d   1      58.666  -0.917  28.733  0.00  0.00     0.104 C 
BRANCH  18  19
ATOM     19  C   UNL d   1      58.998  -1.663  28.785  0.00  0.00     0.019 A 
ATOM     20  C   UNL d   1      59.817  -1.755  28.744  0.00  0.00     0.002 A 
ATOM     21  C   UNL d   1      60.151  -2.504  28.795  0.00  0.00     0.000 A 
ATOM     22  C   UNL d   1      59.652  -3.164  28.889  0.00  0.00     0.000 A 
ATOM     23  C   UNL d   1      58.837  -3.071  28.929  0.00  0.00     0.000 A 
ATOM     24  C   UNL d   1      58.510  -2.313  28.876  0.00  0.00     0.002 A 
ENDBRANCH  18  19
ENDBRANCH   1  18
TORSDOF 5
ENDMDL
MODEL 2
REMARK VINA RESULT:      -3.2      0.757      1.482
REMARK  5 active torsions:
REMARK  status: ('A' for Active; 'I' for Inactive)
REMARK    1  A    between atoms: C_10  and  N_1 
REMARK    2  A    between atoms: C_7  and  C_4 
REMARK    3  A    between atoms: O_16  and  C_9 
REMARK    4  A    between atoms: C_15  and  C_10 
REMARK    5  A    between atoms: O_17  and  C_11 
ROOT
ATOM      1  N   UNL d   1      58.865  -0.145  29.814  0.00  0.00    -0.193 N 
ATOM      2  N   UNL d   1      58.545  -0.184  30.576  0.00  0.00    -0.163 NA
ATOM      3  C   UNL d   1      58.475   0.287  29.241  0.00  0.00     0.281 A 
ATOM      4  C   UNL d   1      57.841   0.210  30.748  0.00  0.00     0.102 A 
ATOM      5  C   UNL d   1      57.778   0.682  29.399  0.00  0.00     0.064 A 
ATOM      6  C   UNL d   1      57.457   0.643  30.160  0.00  0.00     0.026 A 
ATOM      7  O   UNL d   1      58.795   0.325  28.480  0.00  0.00    -0.265 OA
ENDROOT
BRANCH   4   8
ATOM      8  C   UNL d   1      57.526   0.172  31.498  0.00  0.00     0.021 A 
ATOM      9  C   UNL d   1      56.922  -0.379  31.674  0.00  0.00     0.028 A 
ATOM     10  C   UNL d   1      56.610  -0.411  32.430  0.00  0.00     0.116 A 
ATOM     11  C   UNL d   1      56.885   0.095  33.021  0.00  0.00     0.116 A 
ATOM     12  C   UNL d   1      57.490   0.649  32.849  0.00  0.00     0.026 A 
ATOM     13  C   UNL d   1      57.801   0.678  32.089  0.00  0.00     0.004 A 
BRANCH  10  14
ATOM     14  O   UNL d   1      56.017  -0.953  32.602  0.00  0.00    -0.326 OA
ATOM     15  C   UNL d   1      56.041  -1.713  32.290  0.00  0.00     0.181 C 
ENDBRANCH  10  14
BRANCH  11  16
ATOM     16  O   UNL d   1      56.573   0.065  33.785  0.00  0.00    -0.326 OA
ATOM     17  C   UNL d   1      56.838   0.604  34.351  0.00  0.00     0.181 C 
ENDBRANCH  11  16
ENDBRANCH   4   8
BRANCH   1  18
ATOM     18  C   UNL d   1      59.565  -0.540  29.649  0.00  0.00     0.104 C 
BRANCH  18  19
ATOM     19  C   UNL d   1      59.544  -1.332  29.446  0.00  0.00     0.019 A 
ATOM     20  C   UNL d   1      58.834  -1.680  29.210  0.00  0.00     0.002 A 
ATOM     21  C   UNL d   1      58.812  -2.476  29.006  0.00  0.00     0.000 A 
ATOM     22  C   UNL d   1      59.514  -2.922  29.041  0.00  0.00     0.000 A 
ATOM     23  C   UNL d   1      60.221  -2.575  29.276  0.00  0.00     0.000 A 
ATOM     24  C   UNL d   1      60.233  -1.773  29.480  0.00  0.00     0.002 A 
ENDBRANCH  18  19
ENDBRANCH   1  18
TORSDOF 5
ENDMDL
