MODEL 1
REMARK VINA RESULT:      24.5      0.000      0.000
REMARK  2 active torsions:
REMARK  status: ('A' for Active; 'I' for Inactive)
REMARK       I    between atoms: C_6  and  N_8 
REMARK    1  A    between atoms: C_7  and  C_6 
REMARK    2  A    between atoms: N_8  and  C_11 
ROOT
ATOM      1  N   UNL d   1      46.092 -16.101  43.006  0.00  0.00    -0.246 NA
ATOM      2  C   UNL d   1      45.650 -16.091  44.270  0.00  0.00     0.019 A 
ATOM      3  C   UNL d   1      45.731 -15.635  43.583  0.00  0.00     0.081 A 
ATOM      4  C   UNL d   1      45.961 -16.830  44.109  0.00  0.00     0.021 A 
ATOM      5  C   UNL d   1      46.230 -16.827  43.329  0.00  0.00     0.082 A 
ATOM      6  C   UNL d   1      46.031 -17.501  44.572  0.00  0.00     0.021 A 
ATOM      7  C   UNL d   1      46.376 -18.187  44.259  0.00  0.00     0.085 A 
ATOM      8  C   UNL d   1      46.577 -17.514  43.010  0.00  0.00     0.021 A 
ATOM      9  C   UNL d   1      46.646 -18.186  43.479  0.00  0.00     0.021 A 
ATOM     10  C   UNL d   1      45.300 -15.763  44.954  0.00  0.00     0.002 A 
ATOM     11  C   UNL d   1      45.463 -14.851  43.579  0.00  0.00     0.019 A 
ATOM     12  C   UNL d   1      45.034 -14.983  44.947  0.00  0.00     0.000 A 
ATOM     13  C   UNL d   1      45.115 -14.527  44.260  0.00  0.00     0.002 A 
ENDROOT
BRANCH   7  14
ATOM     14  N   UNL d   1      46.448 -18.879  44.739  0.00  0.00    -0.206 NA
ATOM     15  C   UNL d   1      46.338 -19.630  44.406  0.00  0.00     0.302 C 
ATOM     16  O   UNL d   1      46.411 -20.286  44.882  0.00  0.00    -0.263 OA
BRANCH  15  17
ATOM     17  C   UNL d   1      46.154 -19.703  43.590  0.00  0.00     0.158 A 
ATOM     18  O   UNL d   1      45.541 -19.404  43.122  0.00  0.00    -0.300 OA
ATOM     19  C   UNL d   1      45.659 -19.668  42.358  0.00  0.00     0.123 A 
ATOM     20  C   UNL d   1      46.330 -20.122  42.344  0.00  0.00     0.029 A 
ATOM     21  C   UNL d   1      46.631 -20.140  43.107  0.00  0.00     0.032 A 
ENDBRANCH  15  17
ENDBRANCH   7  14
TORSDOF 2
ENDMDL
MODEL 2
REMARK VINA RESULT:      26.1      1.798      4.198
REMARK  2 active torsions:
REMARK  status: ('A' for Active; 'I' for Inactive)
REMARK       I    between atoms: C_6  and  N_8 
REMARK    1  A    between atoms: C_7  and  C_6 
REMARK    2  A    between atoms: N_8  and  C_11 
ROOT
ATOM      1  N   UNL d   1      45.950 -18.241  44.261  0.00  0.00    -0.246 NA
ATOM      2  C   UNL d   1      46.399 -17.816  43.073  0.00  0.00     0.019 A 
ATOM      3  C   UNL d   1      46.142 -18.480  43.495  0.00  0.00     0.081 A 
ATOM      4  C   UNL d   1      46.364 -17.176  43.581  0.00  0.00     0.021 A 
ATOM      5  C   UNL d   1      46.086 -17.448  44.309  0.00  0.00     0.082 A 
ATOM      6  C   UNL d   1      46.547 -16.387  43.473  0.00  0.00     0.021 A 
ATOM      7  C   UNL d   1      46.456 -15.850  44.097  0.00  0.00     0.085 A 
ATOM      8  C   UNL d   1      45.993 -16.911  44.941  0.00  0.00     0.021 A 
ATOM      9  C   UNL d   1      46.179 -16.118  44.827  0.00  0.00     0.021 A 
ATOM     10  C   UNL d   1      46.633 -17.889  42.274  0.00  0.00     0.002 A 
ATOM     11  C   UNL d   1      46.118 -19.219  43.120  0.00  0.00     0.019 A 
ATOM     12  C   UNL d   1      46.608 -18.625  41.903  0.00  0.00     0.000 A 
ATOM     13  C   UNL d   1      46.350 -19.290  42.326  0.00  0.00     0.002 A 
ENDROOT
BRANCH   7  14
ATOM     14  N   UNL d   1      46.647 -15.034  43.983  0.00  0.00    -0.206 NA
ATOM     15  C   UNL d   1      46.079 -14.449  44.132  0.00  0.00     0.302 C 
ATOM     16  O   UNL d   1      46.279 -13.669  44.016  0.00  0.00    -0.263 OA
BRANCH  15  17
ATOM     17  C   UNL d   1      45.312 -14.667  44.397  0.00  0.00     0.158 A 
ATOM     18  O   UNL d   1      45.037 -15.283  44.875  0.00  0.00    -0.300 OA
ATOM     19  C   UNL d   1      44.226 -15.207  44.938  0.00  0.00     0.123 A 
ATOM     20  C   UNL d   1      43.996 -14.559  44.510  0.00  0.00     0.029 A 
ATOM     21  C   UNL d   1      44.671 -14.230  44.179  0.00  0.00     0.032 A 
ENDBRANCH  15  17
ENDBRANCH   7  14
TORSDOF 2
ENDMDL
