MODEL 1
REMARK VINA RESULT:      66.6      0.000      0.000
REMARK  4 active torsions:
REMARK  status: ('A' for Active; 'I' for Inactive)
REMARK    1  A    between atoms: N_3  and  S_1 
REMARK    2  A    between atoms: C_4  and  S_1 
REMARK    3  A    between atoms: C_2  and  N_3 
REMARK    4  A    between atoms: O_18  and  C_13 
ROOT
ATOM      1  S   UNL d   1     -50.358  26.907  33.889  0.00  0.00     0.285 S 
ATOM      2  O   UNL d   1     -51.078  27.269  34.188  0.00  0.00    -0.198 OA
ATOM      3  O   UNL d   1     -49.642  26.553  33.600  0.00  0.00    -0.198 OA
ENDROOT
BRANCH   1   4
ATOM      4  N   UNL d   1     -50.794  26.510  33.306  0.00  0.00    -0.157 NA
BRANCH   4   5
ATOM      5  C   UNL d   1     -50.817  25.661  33.306  0.00  0.00     0.113 A 
ATOM      6  C   UNL d   1     -51.549  25.282  33.306  0.00  0.00     0.100 A 
ATOM      7  C   UNL d   1     -51.571  24.457  33.306  0.00  0.00     0.021 A 
ATOM      8  N   UNL d   1     -52.250  25.700  33.306  0.00  0.00    -0.242 NA
ATOM      9  C   UNL d   1     -52.294  24.068  33.306  0.00  0.00     0.003 A 
ATOM     10  C   UNL d   1     -50.862  24.029  33.306  0.00  0.00     0.026 A 
ATOM     11  C   UNL d   1     -52.998  24.496  33.306  0.00  0.00     0.021 A 
ATOM     12  C   UNL d   1     -52.975  25.321  33.306  0.00  0.00     0.099 A 
ATOM     13  C   UNL d   1     -50.134  24.418  33.306  0.00  0.00     0.096 A 
ATOM     14  C   UNL d   1     -50.111  25.242  33.306  0.00  0.00     0.046 A 
BRANCH  13  15
ATOM     15  O   UNL d   1     -49.409  24.011  33.306  0.00  0.00    -0.328 OA
ATOM     16  C   UNL d   1     -49.313  23.327  33.772  0.00  0.00     0.181 C 
ENDBRANCH  13  15
ENDBRANCH   4   5
ENDBRANCH   1   4
BRANCH   1  17
ATOM     17  C   UNL d   1     -49.900  27.310  34.484  0.00  0.00     0.105 A 
ATOM     18  C   UNL d   1     -49.270  27.790  34.268  0.00  0.00     0.013 A 
ATOM     19  C   UNL d   1     -48.832  28.178  34.848  0.00  0.00     0.001 A 
ATOM     20  C   UNL d   1     -48.205  28.654  34.633  0.00  0.00     0.000 A 
ATOM     21  C   UNL d   1     -49.022  28.087  35.648  0.00  0.00     0.000 A 
ATOM     22  C   UNL d   1     -47.770  29.040  35.218  0.00  0.00     0.000 A 
ATOM     23  C   UNL d   1     -47.957  28.951  36.012  0.00  0.00     0.000 A 
ATOM     24  C   UNL d   1     -48.584  28.475  36.228  0.00  0.00     0.000 A 
ATOM     25  C   UNL d   1     -49.671  27.593  35.871  0.00  0.00     0.001 A 
ATOM     26  C   UNL d   1     -50.107  27.208  35.286  0.00  0.00     0.013 A 
ENDBRANCH   1  17
TORSDOF 4
ENDMDL
