MODEL 1
REMARK VINA RESULT:      -4.9      0.000      0.000
REMARK  6 active torsions:
REMARK  status: ('A' for Active; 'I' for Inactive)
REMARK    1  A    between atoms: N_2  and  S_1 
REMARK    2  A    between atoms: C_3  and  S_1 
REMARK    3  A    between atoms: C_8  and  N_2 
REMARK    4  A    between atoms: C_6  and  O_7 
REMARK    5  A    between atoms: O_7  and  C_13 
REMARK    6  A    between atoms: O_16  and  C_10 
ROOT
ATOM      1  C   UNL d   1      58.207   0.557  30.493  0.00  0.00     0.105 A 
ATOM      2  C   UNL d   1      58.507   0.474  31.250  0.00  0.00     0.015 A 
ATOM      3  C   UNL d   1      57.390   0.635  30.377  0.00  0.00     0.015 A 
ATOM      4  C   UNL d   1      57.183   0.547  31.775  0.00  0.00     0.100 A 
ATOM      5  C   UNL d   1      56.884   0.629  31.019  0.00  0.00     0.025 A 
ATOM      6  C   UNL d   1      57.999   0.469  31.891  0.00  0.00     0.025 A 
ENDROOT
BRANCH   1   7
ATOM      7  S   UNL d   1      58.727   0.561  29.850  0.00  0.00     0.285 S 
ATOM      8  O   UNL d   1      58.435   0.665  29.084  0.00  0.00    -0.198 OA
ATOM      9  O   UNL d   1      59.535   0.463  29.975  0.00  0.00    -0.198 OA
BRANCH   7  10
ATOM     10  N   UNL d   1      59.391   0.536  29.355  0.00  0.00    -0.157 NA
BRANCH  10  11
ATOM     11  C   UNL d   1      59.692  -0.200  29.105  0.00  0.00     0.113 A 
ATOM     12  C   UNL d   1      60.480  -0.393  29.252  0.00  0.00     0.119 A 
ATOM     13  N   UNL d   1      60.781  -1.129  29.003  0.00  0.00    -0.241 NA
ATOM     14  C   UNL d   1      60.283  -1.665  28.607  0.00  0.00     0.099 A 
ATOM     15  C   UNL d   1      59.489  -1.466  28.462  0.00  0.00     0.022 A 
ATOM     16  C   UNL d   1      59.199  -0.732  28.713  0.00  0.00     0.023 A 
ENDBRANCH  10  11
ENDBRANCH   7  10
ENDBRANCH   1   7
BRANCH   4  17
ATOM     17  O   UNL d   1      56.669   0.541  32.428  0.00  0.00    -0.305 OA
BRANCH  17  18
ATOM     18  C   UNL d   1      56.278  -0.155  32.648  0.00  0.00     0.122 A 
ATOM     19  C   UNL d   1      55.613  -0.115  33.129  0.00  0.00     0.117 A 
ATOM     20  C   UNL d   1      55.224  -0.809  33.347  0.00  0.00     0.026 A 
ATOM     21  C   UNL d   1      55.501  -1.535  33.084  0.00  0.00     0.002 A 
ATOM     22  C   UNL d   1      56.169  -1.573  32.601  0.00  0.00     0.002 A 
ATOM     23  C   UNL d   1      56.558  -0.879  32.383  0.00  0.00     0.027 A 
BRANCH  19  24
ATOM     24  O   UNL d   1      55.343   0.614  33.387  0.00  0.00    -0.326 OA
ATOM     25  C   UNL d   1      54.621   0.681  33.756  0.00  0.00     0.181 C 
ENDBRANCH  19  24
ENDBRANCH  17  18
ENDBRANCH   4  17
TORSDOF 6
ENDMDL
MODEL 2
REMARK VINA RESULT:      -3.5      1.886      5.032
REMARK  6 active torsions:
REMARK  status: ('A' for Active; 'I' for Inactive)
REMARK    1  A    between atoms: N_2  and  S_1 
REMARK    2  A    between atoms: C_3  and  S_1 
REMARK    3  A    between atoms: C_8  and  N_2 
REMARK    4  A    between atoms: C_6  and  O_7 
REMARK    5  A    between atoms: O_7  and  C_13 
REMARK    6  A    between atoms: O_16  and  C_10 
ROOT
ATOM      1  C   UNL d   1      57.820  -0.156  30.693  0.00  0.00     0.105 A 
ATOM      2  C   UNL d   1      58.206   0.242  30.091  0.00  0.00     0.015 A 
ATOM      3  C   UNL d   1      57.765  -0.982  30.677  0.00  0.00     0.015 A 
ATOM      4  C   UNL d   1      58.482  -1.005  29.456  0.00  0.00     0.100 A 
ATOM      5  C   UNL d   1      58.096  -1.401  30.059  0.00  0.00     0.025 A 
ATOM      6  C   UNL d   1      58.538  -0.179  29.473  0.00  0.00     0.025 A 
ENDROOT
BRANCH   1   7
ATOM      7  S   UNL d   1      57.487   0.277  31.315  0.00  0.00     0.285 S 
ATOM      8  O   UNL d   1      57.965   0.545  31.934  0.00  0.00    -0.198 OA
ATOM      9  O   UNL d   1      56.679   0.440  31.315  0.00  0.00    -0.198 OA
BRANCH   7  10
ATOM     10  N   UNL d   1      56.978   0.682  31.829  0.00  0.00    -0.157 NA
BRANCH  10  11
ATOM     11  C   UNL d   1      56.627   0.275  32.466  0.00  0.00     0.113 A 
ATOM     12  C   UNL d   1      56.949   0.342  33.223  0.00  0.00     0.119 A 
ATOM     13  N   UNL d   1      56.599  -0.064  33.861  0.00  0.00    -0.241 NA
ATOM     14  C   UNL d   1      55.926  -0.536  33.730  0.00  0.00     0.099 A 
ATOM     15  C   UNL d   1      55.606  -0.600  32.965  0.00  0.00     0.022 A 
ATOM     16  C   UNL d   1      55.961  -0.193  32.338  0.00  0.00     0.023 A 
ENDBRANCH  10  11
ENDBRANCH   7  10
ENDBRANCH   1   7
BRANCH   4  17
ATOM     17  O   UNL d   1      58.820  -1.430  28.828  0.00  0.00    -0.305 OA
BRANCH  17  18
ATOM     18  C   UNL d   1      59.595  -1.717  28.883  0.00  0.00     0.122 A 
ATOM     19  C   UNL d   1      59.749  -2.510  28.728  0.00  0.00     0.117 A 
ATOM     20  C   UNL d   1      60.522  -2.794  28.784  0.00  0.00     0.026 A 
ATOM     21  C   UNL d   1      61.132  -2.287  28.993  0.00  0.00     0.002 A 
ATOM     22  C   UNL d   1      60.975  -1.492  29.148  0.00  0.00     0.002 A 
ATOM     23  C   UNL d   1      60.202  -1.208  29.092  0.00  0.00     0.027 A 
BRANCH  19  24
ATOM     24  O   UNL d   1      59.134  -3.009  28.520  0.00  0.00    -0.326 OA
ATOM     25  C   UNL d   1      59.249  -3.813  28.485  0.00  0.00     0.181 C 
ENDBRANCH  19  24
ENDBRANCH  17  18
ENDBRANCH   4  17
TORSDOF 6
ENDMDL
