MODEL 1
REMARK VINA RESULT:       1.8      0.000      0.000
REMARK  3 active torsions:
REMARK  status: ('A' for Active; 'I' for Inactive)
REMARK    1  A    between atoms: N_5  and  C_1 
REMARK    2  A    between atoms: C_2  and  C_6 
REMARK       I    between atoms: C_11  and  N_5 
REMARK    3  A    between atoms: C_9  and  C_11 
ROOT
ATOM      1  C   UNL d   1     -41.626-122.232 -50.778  0.00  0.00     0.053 A 
ATOM      2  S   UNL d   1     -41.678-121.422 -50.943  0.00  0.00    -0.080 SA
ATOM      3  C   UNL d   1     -41.365-121.300 -51.701  0.00  0.00     0.087 A 
ATOM      4  C   UNL d   1     -41.285-122.607 -51.427  0.00  0.00     0.009 A 
ATOM      5  C   UNL d   1     -41.122-122.031 -52.000  0.00  0.00     0.012 A 
ENDROOT
BRANCH   3   6
ATOM      6  C   UNL d   1     -41.307-120.571 -52.088  0.00  0.00     0.287 C 
ATOM      7  N   UNL d   1     -41.418-120.533 -52.903  0.00  0.00    -0.182 NA
ATOM      8  O   UNL d   1     -41.139-119.886 -51.657  0.00  0.00    -0.265 OA
BRANCH   7   9
ATOM      9  C   UNL d   1     -41.587-121.221 -53.336  0.00  0.00     0.197 A 
ATOM     10  N   UNL d   1     -41.123-121.903 -53.359  0.00  0.00    -0.221 NA
ATOM     11  C   UNL d   1     -41.497-122.441 -53.852  0.00  0.00     0.090 A 
ATOM     12  C   UNL d   1     -41.292-123.201 -54.079  0.00  0.00     0.020 A 
ATOM     13  C   UNL d   1     -42.184-122.085 -54.125  0.00  0.00     0.050 A 
ATOM     14  C   UNL d   1     -41.785-123.609 -54.587  0.00  0.00     0.002 A 
ATOM     15  C   UNL d   1     -42.474-123.272 -54.870  0.00  0.00     0.001 A 
ATOM     16  C   UNL d   1     -42.689-122.507 -54.648  0.00  0.00     0.008 A 
ATOM     17  C   UNL d   1     -42.968-123.690 -55.384  0.00  0.00     0.000 C 
ATOM     18  S   UNL d   1     -42.244-121.334 -53.810  0.00  0.00    -0.047 SA
ENDBRANCH   7   9
ENDBRANCH   3   6
BRANCH   1  19
ATOM     19  C   UNL d   1     -41.875-122.599 -50.080  0.00  0.00     0.117 A 
ATOM     20  N   UNL d   1     -41.389-122.796 -49.443  0.00  0.00    -0.238 NA
ATOM     21  C   UNL d   1     -41.868-123.153 -48.867  0.00  0.00     0.088 A 
ATOM     22  C   UNL d   1     -41.696-123.460 -48.122  0.00  0.00     0.020 A 
ATOM     23  C   UNL d   1     -42.644-123.173 -49.153  0.00  0.00     0.049 A 
ATOM     24  C   UNL d   1     -42.296-123.786 -47.666  0.00  0.00     0.002 A 
ATOM     25  C   UNL d   1     -43.072-123.806 -47.953  0.00  0.00     0.001 A 
ATOM     26  C   UNL d   1     -43.245-123.500 -48.695  0.00  0.00     0.008 A 
ATOM     27  S   UNL d   1     -42.644-122.828 -49.907  0.00  0.00    -0.066 SA
ENDBRANCH   1  19
TORSDOF 3
ENDMDL
