MODEL 1
REMARK VINA RESULT:      -3.0      0.000      0.000
REMARK  3 active torsions:
REMARK  status: ('A' for Active; 'I' for Inactive)
REMARK    1  A    between atoms: N_2  and  C_12 
REMARK    2  A    between atoms: N_10  and  C_6 
REMARK       I    between atoms: C_11  and  N_10 
REMARK    3  A    between atoms: C_12  and  C_11 
ROOT
ATOM      1  C   UNL d   1      32.971  22.143 -22.670  0.00  0.00     0.283 A 
ATOM      2  N   UNL d   1      32.818  22.874 -22.275  0.00  0.00    -0.169 NA
ATOM      3  C   UNL d   1      32.964  21.561 -22.040  0.00  0.00     0.080 A 
ATOM      4  C   UNL d   1      32.730  22.724 -21.491  0.00  0.00     0.282 A 
ATOM      5  C   UNL d   1      33.077  20.747 -22.065  0.00  0.00     0.089 A 
ATOM      6  C   UNL d   1      32.812  21.959 -21.335  0.00  0.00     0.064 A 
ATOM      7  O   UNL d   1      33.109  21.967 -23.491  0.00  0.00    -0.265 OA
ATOM      8  O   UNL d   1      32.569  23.330 -20.926  0.00  0.00    -0.265 OA
ATOM      9  C   UNL d   1      33.037  20.315 -21.351  0.00  0.00     0.019 A 
ATOM     10  C   UNL d   1      32.775  21.517 -20.632  0.00  0.00     0.005 A 
ATOM     11  C   UNL d   1      32.886  20.727 -20.659  0.00  0.00     0.002 A 
ENDROOT
BRANCH   5  12
ATOM     12  N   UNL d   1      33.240  20.318 -22.822  0.00  0.00    -0.207 NA
ATOM     13  C   UNL d   1      33.087  19.502 -22.825  0.00  0.00     0.297 C 
ATOM     14  O   UNL d   1      32.806  19.105 -22.183  0.00  0.00    -0.264 OA
BRANCH  13  15
ATOM     15  C   UNL d   1      33.241  19.109 -23.533  0.00  0.00     0.148 C 
BRANCH  15  16
ATOM     16  N   UNL d   1      32.773  18.463 -23.721  0.00  0.00    -0.236 N 
ATOM     17  C   UNL d   1      32.723  17.708 -23.364  0.00  0.00     0.267 A 
ATOM     18  C   UNL d   1      32.146  17.275 -23.796  0.00  0.00     0.066 A 
ATOM     19  O   UNL d   1      33.166  17.434 -22.701  0.00  0.00    -0.267 OA
ATOM     20  C   UNL d   1      31.864  17.761 -24.390  0.00  0.00     0.066 A 
ATOM     21  C   UNL d   1      32.256  18.506 -24.344  0.00  0.00     0.267 A 
ATOM     22  O   UNL d   1      32.161  19.185 -24.828  0.00  0.00    -0.267 OA
ENDBRANCH  15  16
ENDBRANCH  13  15
ENDBRANCH   5  12
TORSDOF 3
ENDMDL
MODEL 2
REMARK VINA RESULT:      -2.9      2.760      5.127
REMARK  3 active torsions:
REMARK  status: ('A' for Active; 'I' for Inactive)
REMARK    1  A    between atoms: N_2  and  C_12 
REMARK    2  A    between atoms: N_10  and  C_6 
REMARK       I    between atoms: C_11  and  N_10 
REMARK    3  A    between atoms: C_12  and  C_11 
ROOT
ATOM      1  C   UNL d   1      29.189  17.132 -24.477  0.00  0.00     0.283 A 
ATOM      2  N   UNL d   1      28.366  16.995 -24.338  0.00  0.00    -0.169 NA
ATOM      3  C   UNL d   1      29.583  16.579 -23.953  0.00  0.00     0.080 A 
ATOM      4  C   UNL d   1      28.296  16.418 -23.785  0.00  0.00     0.282 A 
ATOM      5  C   UNL d   1      30.384  16.440 -23.828  0.00  0.00     0.089 A 
ATOM      6  C   UNL d   1      29.000  16.162 -23.547  0.00  0.00     0.064 A 
ATOM      7  O   UNL d   1      29.588  17.673 -24.999  0.00  0.00    -0.265 OA
ATOM      8  O   UNL d   1      27.549  16.139 -23.509  0.00  0.00    -0.265 OA
ATOM      9  C   UNL d   1      30.608  15.857 -23.273  0.00  0.00     0.019 A 
ATOM     10  C   UNL d   1      29.236  15.585 -22.997  0.00  0.00     0.005 A 
ATOM     11  C   UNL d   1      30.014  15.453 -22.879  0.00  0.00     0.002 A 
ENDROOT
BRANCH   5  12
ATOM     12  N   UNL d   1      31.011  16.888 -24.263  0.00  0.00    -0.207 NA
ATOM     13  C   UNL d   1      31.755  16.931 -23.897  0.00  0.00     0.297 C 
ATOM     14  O   UNL d   1      31.916  16.590 -23.185  0.00  0.00    -0.264 OA
BRANCH  13  15
ATOM     15  C   UNL d   1      32.335  17.350 -24.308  0.00  0.00     0.148 C 
BRANCH  15  16
ATOM     16  N   UNL d   1      32.625  18.036 -23.967  0.00  0.00    -0.236 N 
ATOM     17  C   UNL d   1      33.031  18.153 -23.245  0.00  0.00     0.267 A 
ATOM     18  C   UNL d   1      33.189  18.976 -23.188  0.00  0.00     0.066 A 
ATOM     19  O   UNL d   1      33.241  17.559 -22.683  0.00  0.00    -0.267 OA
ATOM     20  C   UNL d   1      32.885  19.335 -23.857  0.00  0.00     0.066 A 
ATOM     21  C   UNL d   1      32.531  18.747 -24.346  0.00  0.00     0.267 A 
ATOM     22  O   UNL d   1      32.147  18.835 -25.086  0.00  0.00    -0.267 OA
ENDBRANCH  15  16
ENDBRANCH  13  15
ENDBRANCH   5  12
TORSDOF 3
ENDMDL
MODEL 3
REMARK VINA RESULT:      -2.1      0.934      1.735
REMARK  3 active torsions:
REMARK  status: ('A' for Active; 'I' for Inactive)
REMARK    1  A    between atoms: N_2  and  C_12 
REMARK    2  A    between atoms: N_10  and  C_6 
REMARK       I    between atoms: C_11  and  N_10 
REMARK    3  A    between atoms: C_12  and  C_11 
ROOT
ATOM      1  C   UNL d   1      32.861  21.108 -20.737  0.00  0.00     0.283 A 
ATOM      2  N   UNL d   1      32.721  21.756 -20.213  0.00  0.00    -0.169 NA
ATOM      3  C   UNL d   1      32.979  21.480 -21.501  0.00  0.00     0.080 A 
ATOM      4  C   UNL d   1      32.755  22.436 -20.637  0.00  0.00     0.282 A 
ATOM      5  C   UNL d   1      33.137  21.149 -22.237  0.00  0.00     0.089 A 
ATOM      6  C   UNL d   1      32.905  22.293 -21.395  0.00  0.00     0.064 A 
ATOM      7  O   UNL d   1      32.891  20.269 -20.597  0.00  0.00    -0.265 OA
ATOM      8  O   UNL d   1      32.640  23.197 -20.291  0.00  0.00    -0.265 OA
ATOM      9  C   UNL d   1      33.226  21.657 -22.894  0.00  0.00     0.019 A 
ATOM     10  C   UNL d   1      32.995  22.788 -22.057  0.00  0.00     0.005 A 
ATOM     11  C   UNL d   1      33.149  22.463 -22.770  0.00  0.00     0.002 A 
ENDROOT
BRANCH   5  12
ATOM     12  N   UNL d   1      33.217  20.275 -22.351  0.00  0.00    -0.207 NA
ATOM     13  C   UNL d   1      33.166  19.999 -23.132  0.00  0.00     0.297 C 
ATOM     14  O   UNL d   1      33.052  20.484 -23.765  0.00  0.00    -0.264 OA
BRANCH  13  15
ATOM     15  C   UNL d   1      33.241  19.183 -23.232  0.00  0.00     0.148 C 
BRANCH  15  16
ATOM     16  N   UNL d   1      32.777  18.824 -23.803  0.00  0.00    -0.236 N 
ATOM     17  C   UNL d   1      32.729  18.960 -24.627  0.00  0.00     0.267 A 
ATOM     18  C   UNL d   1      32.155  18.424 -24.927  0.00  0.00     0.066 A 
ATOM     19  O   UNL d   1      33.171  19.525 -25.071  0.00  0.00    -0.267 OA
ATOM     20  C   UNL d   1      31.872  17.985 -24.299  0.00  0.00     0.066 A 
ATOM     21  C   UNL d   1      32.261  18.234 -23.593  0.00  0.00     0.267 A 
ATOM     22  O   UNL d   1      32.164  17.954 -22.808  0.00  0.00    -0.267 OA
ENDBRANCH  15  16
ENDBRANCH  13  15
ENDBRANCH   5  12
TORSDOF 3
ENDMDL
