MODEL 1
REMARK VINA RESULT:      72.2      0.000      0.000
REMARK  8 active torsions:
REMARK  status: ('A' for Active; 'I' for Inactive)
REMARK    1  A    between atoms: C_9  and  N_1 
REMARK    2  A    between atoms: C_7  and  C_2 
REMARK    3  A    between atoms: C_6  and  C_4 
REMARK    4  A    between atoms: C_8  and  C_11 
REMARK       I    between atoms: N_23  and  C_8 
REMARK    5  A    between atoms: C_26  and  N_23 
REMARK    6  A    between atoms: C_24  and  C_26 
REMARK    7  A    between atoms: C_27  and  C_24 
REMARK    8  A    between atoms: O_25  and  C_27 
ROOT
ATOM      1  N   UNL d   1     -57.878 -99.647 -45.295  0.00  0.00    -0.229 N 
ATOM      2  C   UNL d   1     -58.443 -99.190 -44.874  0.00  0.00     0.090 A 
ATOM      3  N   UNL d   1     -58.066 -99.608 -46.083  0.00  0.00    -0.161 NA
ATOM      4  C   UNL d   1     -58.740 -99.135 -46.180  0.00  0.00     0.174 A 
ATOM      5  C   UNL d   1     -58.972 -98.876 -45.424  0.00  0.00     0.044 A 
ENDROOT
BRANCH   1   6
ATOM      6  C   UNL d   1     -57.247-100.061 -44.967  0.00  0.00     0.083 A 
ATOM      7  C   UNL d   1     -56.851-100.632 -45.413  0.00  0.00     0.019 A 
ATOM      8  C   UNL d   1     -56.218-101.051 -45.091  0.00  0.00     0.006 A 
ATOM      9  C   UNL d   1     -55.981-100.892 -44.310  0.00  0.00     0.058 A 
ATOM     10  C   UNL d   1     -56.382-100.317 -43.863  0.00  0.00     0.006 A 
ATOM     11  C   UNL d   1     -57.008 -99.907 -44.192  0.00  0.00     0.019 A 
BRANCH   9  12
ATOM     12  C   UNL d   1     -55.343-101.311 -43.980  0.00  0.00     0.279 C 
ATOM     13  O   UNL d   1     -54.714-101.548 -44.454  0.00  0.00    -0.265 OA
ATOM     14  N   UNL d   1     -55.342-101.489 -43.178  0.00  0.00    -0.206 NA
BRANCH  14  15
ATOM     15  C   UNL d   1     -54.714-101.903 -42.845  0.00  0.00     0.104 C 
BRANCH  15  16
ATOM     16  C   UNL d   1     -54.789-102.251 -42.102  0.00  0.00     0.047 C 
BRANCH  16  17
ATOM     17  C   UNL d   1     -55.325-101.944 -41.549  0.00  0.00     0.118 C 
BRANCH  17  18
ATOM     18  O   UNL d   1     -55.141-101.983 -40.745  0.00  0.00    -0.326 OA
ATOM     19  C   UNL d   1     -54.739-102.646 -40.444  0.00  0.00     0.181 C 
ENDBRANCH  17  18
ENDBRANCH  16  17
ENDBRANCH  15  16
ENDBRANCH  14  15
ENDBRANCH   9  12
ENDBRANCH   1   6
BRANCH   2  20
ATOM     20  C   UNL d   1     -58.535 -99.025 -44.070  0.00  0.00     0.047 A 
ATOM     21  S   UNL d   1     -58.138 -98.769 -43.381  0.00  0.00    -0.085 SA
ATOM     22  C   UNL d   1     -58.689 -98.759 -42.760  0.00  0.00     0.035 A 
ATOM     23  C   UNL d   1     -59.409 -99.005 -43.068  0.00  0.00     0.007 A 
ATOM     24  C   UNL d   1     -59.318 -99.169 -43.868  0.00  0.00     0.009 A 
ENDBRANCH   2  20
BRANCH   4  25
ATOM     25  C   UNL d   1     -59.116 -98.952 -46.891  0.00  0.00     0.437 C 
ATOM     26  F   UNL d   1     -59.462 -98.784 -47.539  0.00  0.00    -0.164 F 
ATOM     27  F   UNL d   1     -59.959 -98.902 -47.061  0.00  0.00    -0.164 F 
ATOM     28  F   UNL d   1     -58.770 -98.758 -47.661  0.00  0.00    -0.164 F 
ENDBRANCH   4  25
TORSDOF 8
ENDMDL
