MODEL 1
REMARK VINA RESULT:      -8.1      0.000      0.000
REMARK  3 active torsions:
REMARK  status: ('A' for Active; 'I' for Inactive)
REMARK       I    between atoms: N_5  and  C_1 
REMARK       I    between atoms: N_6  and  C_1 
REMARK    1  A    between atoms: C_2  and  N_7 
REMARK    2  A    between atoms: C_9  and  N_5 
REMARK    3  A    between atoms: N_7  and  N_6 
ROOT
ATOM      1  C   UNL d   1      54.208  32.715  55.025  0.00  0.00     0.070 A 
ATOM      2  C   UNL d   1      53.876  32.109  54.571  0.00  0.00     0.032 A 
ATOM      3  C   UNL d   1      53.932  32.109  53.765  0.00  0.00     0.087 A 
ATOM      4  C   UNL d   1      54.600  33.323  54.622  0.00  0.00     0.068 A 
ATOM      5  C   UNL d   1      54.656  33.323  53.799  0.00  0.00     0.014 A 
ATOM      6 CL   UNL d   1      54.160  32.729  55.852  0.00  0.00    -0.081 Cl
ATOM      7  C   UNL d   1      54.323  32.716  53.371  0.00  0.00     0.020 A 
ATOM      8 CL   UNL d   1      54.951  33.962  55.077  0.00  0.00    -0.082 Cl
ENDROOT
BRANCH   3   9
ATOM      9  N   UNL d   1      53.576  31.463  53.318  0.00  0.00    -0.190 NA
ATOM     10  C   UNL d   1      52.869  31.607  52.877  0.00  0.00     0.387 C 
ATOM     11  N   UNL d   1      52.534  32.349  52.880  0.00  0.00    -0.086 NA
ATOM     12  O   UNL d   1      52.527  30.985  52.448  0.00  0.00    -0.241 OA
BRANCH  11  13
ATOM     13  N   UNL d   1      52.876  32.955  53.304  0.00  0.00    -0.111 NA
BRANCH  13  14
ATOM     14  C   UNL d   1      52.513  33.702  53.358  0.00  0.00     0.260 C 
ATOM     15  S   UNL d   1      52.678  34.283  52.800  0.00  0.00    -0.034 SA
ATOM     16  N   UNL d   1      51.987  33.850  53.981  0.00  0.00    -0.113 N 
ENDBRANCH  13  14
ENDBRANCH  11  13
ENDBRANCH   3   9
TORSDOF 3
ENDMDL
MODEL 2
REMARK VINA RESULT:      -7.9      1.916      2.420
REMARK  3 active torsions:
REMARK  status: ('A' for Active; 'I' for Inactive)
REMARK       I    between atoms: N_5  and  C_1 
REMARK       I    between atoms: N_6  and  C_1 
REMARK    1  A    between atoms: C_2  and  N_7 
REMARK    2  A    between atoms: C_9  and  N_5 
REMARK    3  A    between atoms: N_7  and  N_6 
ROOT
ATOM      1  C   UNL d   1      53.826  32.683  54.687  0.00  0.00     0.070 A 
ATOM      2  C   UNL d   1      53.759  33.473  54.922  0.00  0.00     0.032 A 
ATOM      3  C   UNL d   1      53.751  34.073  54.380  0.00  0.00     0.087 A 
ATOM      4  C   UNL d   1      53.883  32.529  53.877  0.00  0.00     0.068 A 
ATOM      5  C   UNL d   1      53.874  33.141  53.323  0.00  0.00     0.014 A 
ATOM      6 CL   UNL d   1      53.837  32.057  55.231  0.00  0.00    -0.081 Cl
ATOM      7  C   UNL d   1      53.808  33.913  53.575  0.00  0.00     0.020 A 
ATOM      8 CL   UNL d   1      53.954  31.714  53.614  0.00  0.00    -0.082 Cl
ENDROOT
BRANCH   3   9
ATOM      9  N   UNL d   1      53.680  34.887  54.655  0.00  0.00    -0.190 NA
ATOM     10  C   UNL d   1      52.997  35.338  54.440  0.00  0.00     0.387 C 
ATOM     11  N   UNL d   1      52.418  34.998  53.979  0.00  0.00    -0.086 NA
ATOM     12  O   UNL d   1      52.930  36.121  54.704  0.00  0.00    -0.241 OA
BRANCH  11  13
ATOM     13  N   UNL d   1      52.491  34.228  53.723  0.00  0.00    -0.111 NA
BRANCH  13  14
ATOM     14  C   UNL d   1      51.894  33.865  53.272  0.00  0.00     0.260 C 
ATOM     15  S   UNL d   1      51.853  33.991  52.460  0.00  0.00    -0.034 SA
ATOM     16  N   UNL d   1      51.343  33.375  53.653  0.00  0.00    -0.113 N 
ENDBRANCH  13  14
ENDBRANCH  11  13
ENDBRANCH   3   9
TORSDOF 3
ENDMDL
MODEL 3
REMARK VINA RESULT:      -7.5      1.781      2.300
REMARK  3 active torsions:
REMARK  status: ('A' for Active; 'I' for Inactive)
REMARK       I    between atoms: N_5  and  C_1 
REMARK       I    between atoms: N_6  and  C_1 
REMARK    1  A    between atoms: C_2  and  N_7 
REMARK    2  A    between atoms: C_9  and  N_5 
REMARK    3  A    between atoms: N_7  and  N_6 
ROOT
ATOM      1  C   UNL d   1      51.731  33.409  53.310  0.00  0.00     0.070 A 
ATOM      2  C   UNL d   1      51.893  32.605  53.201  0.00  0.00     0.032 A 
ATOM      3  C   UNL d   1      52.621  32.354  52.958  0.00  0.00     0.087 A 
ATOM      4  C   UNL d   1      52.342  33.945  53.160  0.00  0.00     0.068 A 
ATOM      5  C   UNL d   1      53.086  33.689  52.912  0.00  0.00     0.014 A 
ATOM      6 CL   UNL d   1      50.989  33.683  53.560  0.00  0.00    -0.081 Cl
ATOM      7  C   UNL d   1      53.225  32.893  52.810  0.00  0.00     0.020 A 
ATOM      8 CL   UNL d   1      52.192  34.785  53.268  0.00  0.00    -0.082 Cl
ENDROOT
BRANCH   3   9
ATOM      9  N   UNL d   1      52.762  31.509  52.852  0.00  0.00    -0.190 NA
ATOM     10  C   UNL d   1      53.343  31.124  53.332  0.00  0.00     0.387 C 
ATOM     11  N   UNL d   1      53.760  31.554  53.883  0.00  0.00    -0.086 NA
ATOM     12  O   UNL d   1      53.477  30.312  53.230  0.00  0.00    -0.241 OA
BRANCH  11  13
ATOM     13  N   UNL d   1      53.623  32.351  53.977  0.00  0.00    -0.111 NA
BRANCH  13  14
ATOM     14  C   UNL d   1      54.029  32.794  54.553  0.00  0.00     0.260 C 
ATOM     15  S   UNL d   1      54.741  33.162  54.366  0.00  0.00    -0.034 SA
ATOM     16  N   UNL d   1      53.705  32.858  55.314  0.00  0.00    -0.113 N 
ENDBRANCH  13  14
ENDBRANCH  11  13
ENDBRANCH   3   9
TORSDOF 3
ENDMDL
MODEL 4
REMARK VINA RESULT:      -7.5      2.451      3.150
REMARK  3 active torsions:
REMARK  status: ('A' for Active; 'I' for Inactive)
REMARK       I    between atoms: N_5  and  C_1 
REMARK       I    between atoms: N_6  and  C_1 
REMARK    1  A    between atoms: C_2  and  N_7 
REMARK    2  A    between atoms: C_9  and  N_5 
REMARK    3  A    between atoms: N_7  and  N_6 
ROOT
ATOM      1  C   UNL d   1      52.001  32.997  53.317  0.00  0.00     0.070 A 
ATOM      2  C   UNL d   1      51.971  33.785  53.569  0.00  0.00     0.032 A 
ATOM      3  C   UNL d   1      52.621  34.263  53.525  0.00  0.00     0.087 A 
ATOM      4  C   UNL d   1      52.721  32.719  53.020  0.00  0.00     0.068 A 
ATOM      5  C   UNL d   1      53.384  33.207  52.975  0.00  0.00     0.014 A 
ATOM      6 CL   UNL d   1      51.344  32.493  53.355  0.00  0.00    -0.081 Cl
ATOM      7  C   UNL d   1      53.334  33.980  53.228  0.00  0.00     0.020 A 
ATOM      8 CL   UNL d   1      52.771  31.903  52.753  0.00  0.00    -0.082 Cl
ENDROOT
BRANCH   3   9
ATOM      9  N   UNL d   1      52.560  35.081  53.795  0.00  0.00    -0.190 NA
ATOM     10  C   UNL d   1      53.029  35.334  54.452  0.00  0.00     0.387 C 
ATOM     11  N   UNL d   1      53.528  34.807  54.820  0.00  0.00    -0.086 NA
ATOM     12  O   UNL d   1      52.970  36.120  54.711  0.00  0.00    -0.241 OA
BRANCH  11  13
ATOM     13  N   UNL d   1      53.580  34.037  54.560  0.00  0.00    -0.111 NA
BRANCH  13  14
ATOM     14  C   UNL d   1      54.086  33.489  54.931  0.00  0.00     0.260 C 
ATOM     15  S   UNL d   1      54.895  33.507  54.785  0.00  0.00    -0.034 SA
ATOM     16  N   UNL d   1      53.760  32.928  55.448  0.00  0.00    -0.113 N 
ENDBRANCH  13  14
ENDBRANCH  11  13
ENDBRANCH   3   9
TORSDOF 3
ENDMDL
