MODEL 1
REMARK VINA RESULT:      89.1      0.000      0.000
REMARK  3 active torsions:
REMARK  status: ('A' for Active; 'I' for Inactive)
REMARK    1  A    between atoms: C_5  and  C_1 
REMARK    2  A    between atoms: C_2  and  C_5 
REMARK    3  A    between atoms: C_12  and  C_5 
ROOT
ATOM      1  C   UNL d   1     -51.515  25.644  34.364  0.00  0.00     0.021 C 
ENDROOT
BRANCH   1   2
ATOM      2  C   UNL d   1     -52.241  25.555  33.982  0.00  0.00     0.021 A 
ATOM      3  C   UNL d   1     -52.719  26.105  33.567  0.00  0.00     0.082 A 
ATOM      4  N   UNL d   1     -53.382  25.691  33.306  0.00  0.00    -0.246 NA
ATOM      5  C   UNL d   1     -52.566  26.910  33.438  0.00  0.00     0.021 C 
ATOM      6  C   UNL d   1     -53.323  24.907  33.548  0.00  0.00     0.081 A 
ATOM      7  C   UNL d   1     -52.616  24.831  33.964  0.00  0.00     0.019 A 
ATOM      8  C   UNL d   1     -53.808  24.241  33.453  0.00  0.00     0.019 A 
ATOM      9  C   UNL d   1     -52.395  24.102  34.282  0.00  0.00     0.002 A 
ATOM     10  C   UNL d   1     -52.876  23.438  34.189  0.00  0.00     0.000 A 
ATOM     11  C   UNL d   1     -53.566  23.520  33.781  0.00  0.00     0.002 A 
ENDBRANCH   1   2
BRANCH   1  12
ATOM     12  C   UNL d   1     -50.806  25.435  33.979  0.00  0.00     0.021 A 
ATOM     13  C   UNL d   1     -50.298  25.967  33.619  0.00  0.00     0.082 A 
ATOM     14  N   UNL d   1     -49.667  25.537  33.306  0.00  0.00    -0.246 NA
ATOM     15  C   UNL d   1     -50.400  26.806  33.573  0.00  0.00     0.021 C 
ATOM     16  C   UNL d   1     -49.790  24.744  33.476  0.00  0.00     0.081 A 
ATOM     17  C   UNL d   1     -50.493  24.680  33.892  0.00  0.00     0.019 A 
ATOM     18  C   UNL d   1     -49.349  24.066  33.306  0.00  0.00     0.019 A 
ATOM     19  C   UNL d   1     -50.761  23.939  34.140  0.00  0.00     0.002 A 
ATOM     20  C   UNL d   1     -50.319  23.260  33.968  0.00  0.00     0.000 A 
ATOM     21  C   UNL d   1     -49.616  23.323  33.553  0.00  0.00     0.002 A 
ENDBRANCH   1  12
BRANCH   1  22
ATOM     22  C   UNL d   1     -51.479  25.939  35.125  0.00  0.00     0.082 A 
ATOM     23  N   UNL d   1     -51.991  25.664  35.698  0.00  0.00    -0.244 NA
ATOM     24  C   UNL d   1     -51.958  25.956  36.462  0.00  0.00     0.099 A 
ATOM     25  C   UNL d   1     -51.385  26.546  36.641  0.00  0.00     0.021 A 
ATOM     26  C   UNL d   1     -50.893  26.808  36.081  0.00  0.00     0.003 A 
ATOM     27  C   UNL d   1     -50.920  26.521  35.318  0.00  0.00     0.019 A 
ENDBRANCH   1  22
TORSDOF 3
ENDMDL
