MODEL 1
REMARK VINA RESULT:      86.2      0.000      0.000
REMARK  6 active torsions:
REMARK  status: ('A' for Active; 'I' for Inactive)
REMARK    1  A    between atoms: C_3  and  N_1 
REMARK    2  A    between atoms: N_9  and  C_3 
REMARK    3  A    between atoms: C_7  and  C_4 
REMARK    4  A    between atoms: C_8  and  C_5 
REMARK    5  A    between atoms: C_16  and  N_9 
REMARK    6  A    between atoms: O_17  and  C_13 
ROOT
ATOM      1  N   UNL d   1     -55.924-100.793 -43.718  0.00  0.00    -0.201 N 
ATOM      2  N   UNL d   1     -56.501-100.245 -43.492  0.00  0.00    -0.163 NA
ATOM      3  C   UNL d   1     -56.993-100.118 -44.146  0.00  0.00     0.105 A 
ATOM      4  C   UNL d   1     -56.045-101.012 -44.500  0.00  0.00     0.110 A 
ATOM      5  C   UNL d   1     -56.712-100.579 -44.738  0.00  0.00     0.042 A 
ENDROOT
BRANCH   1   6
ATOM      6  C   UNL d   1     -55.320-101.079 -43.235  0.00  0.00     0.222 C 
ATOM      7  S   UNL d   1     -55.174-101.674 -43.783  0.00  0.00    -0.037 SA
BRANCH   6   8
ATOM      8  N   UNL d   1     -54.711-101.359 -42.740  0.00  0.00    -0.217 NA
BRANCH   8   9
ATOM      9  C   UNL d   1     -54.881-101.551 -41.980  0.00  0.00     0.084 A 
ATOM     10  C   UNL d   1     -54.844-100.983 -41.367  0.00  0.00     0.019 A 
ATOM     11  C   UNL d   1     -55.024-101.211 -40.601  0.00  0.00     0.002 A 
ATOM     12  C   UNL d   1     -55.235-101.966 -40.418  0.00  0.00     0.000 A 
ATOM     13  C   UNL d   1     -55.279-102.548 -41.011  0.00  0.00     0.002 A 
ATOM     14  C   UNL d   1     -55.102-102.341 -41.792  0.00  0.00     0.019 A 
ENDBRANCH   8   9
ENDBRANCH   6   8
ENDBRANCH   1   6
BRANCH   4  15
ATOM     15  C   UNL d   1     -55.499-101.660 -45.032  0.00  0.00     0.118 A 
ATOM     16  O   UNL d   1     -55.091-101.493 -45.764  0.00  0.00    -0.304 OA
ATOM     17  C   UNL d   1     -54.711-102.177 -46.015  0.00  0.00     0.123 A 
ATOM     18  C   UNL d   1     -54.865-102.773 -45.465  0.00  0.00     0.029 A 
ATOM     19  C   UNL d   1     -55.329-102.475 -44.882  0.00  0.00     0.028 A 
ENDBRANCH   4  15
BRANCH   3  20
ATOM     20  C   UNL d   1     -57.687 -99.575 -44.167  0.00  0.00     0.042 A 
ATOM     21  C   UNL d   1     -58.293 -99.116 -44.418  0.00  0.00     0.096 A 
ATOM     22  C   UNL d   1     -58.710 -98.756 -43.870  0.00  0.00     0.024 A 
ATOM     23  C   UNL d   1     -58.542 -98.839 -43.066  0.00  0.00     0.002 A 
ATOM     24  C   UNL d   1     -57.958 -99.282 -42.811  0.00  0.00     0.000 A 
ATOM     25  C   UNL d   1     -57.520 -99.658 -43.364  0.00  0.00     0.004 A 
BRANCH  21  26
ATOM     26  O   UNL d   1     -58.460 -99.033 -45.221  0.00  0.00    -0.328 OA
ATOM     27  C   UNL d   1     -59.177 -99.046 -45.444  0.00  0.00     0.181 C 
ENDBRANCH  21  26
ENDBRANCH   3  20
TORSDOF 6
ENDMDL
MODEL 2
REMARK VINA RESULT:      88.4      1.145      2.783
REMARK  6 active torsions:
REMARK  status: ('A' for Active; 'I' for Inactive)
REMARK    1  A    between atoms: C_3  and  N_1 
REMARK    2  A    between atoms: N_9  and  C_3 
REMARK    3  A    between atoms: C_7  and  C_4 
REMARK    4  A    between atoms: C_8  and  C_5 
REMARK    5  A    between atoms: C_16  and  N_9 
REMARK    6  A    between atoms: O_17  and  C_13 
ROOT
ATOM      1  N   UNL d   1     -56.371-100.358 -44.040  0.00  0.00    -0.201 N 
ATOM      2  N   UNL d   1     -56.956 -99.903 -44.408  0.00  0.00    -0.163 NA
ATOM      3  C   UNL d   1     -57.593 -99.844 -43.882  0.00  0.00     0.105 A 
ATOM      4  C   UNL d   1     -56.629-100.585 -43.294  0.00  0.00     0.110 A 
ATOM      5  C   UNL d   1     -57.387-100.253 -43.225  0.00  0.00     0.042 A 
ENDROOT
BRANCH   1   6
ATOM      6  C   UNL d   1     -55.640-100.554 -44.368  0.00  0.00     0.222 C 
ATOM      7  S   UNL d   1     -55.373 -99.792 -44.210  0.00  0.00    -0.037 SA
BRANCH   6   8
ATOM      8  N   UNL d   1     -54.906-100.762 -44.701  0.00  0.00    -0.217 NA
BRANCH   8   9
ATOM      9  C   UNL d   1     -54.847-101.438 -45.130  0.00  0.00     0.084 A 
ATOM     10  C   UNL d   1     -54.832-101.425 -45.966  0.00  0.00     0.019 A 
ATOM     11  C   UNL d   1     -54.771-102.132 -46.375  0.00  0.00     0.002 A 
ATOM     12  C   UNL d   1     -54.725-102.842 -45.997  0.00  0.00     0.000 A 
ATOM     13  C   UNL d   1     -54.737-102.879 -45.165  0.00  0.00     0.002 A 
ATOM     14  C   UNL d   1     -54.798-102.178 -44.732  0.00  0.00     0.019 A 
ENDBRANCH   8   9
ENDBRANCH   6   8
ENDBRANCH   1   6
BRANCH   4  15
ATOM     15  C   UNL d   1     -56.127-101.139 -42.629  0.00  0.00     0.118 A 
ATOM     16  O   UNL d   1     -56.402-101.861 -42.265  0.00  0.00    -0.304 OA
ATOM     17  C   UNL d   1     -55.820-102.136 -41.755  0.00  0.00     0.123 A 
ATOM     18  C   UNL d   1     -55.183-101.611 -41.784  0.00  0.00     0.029 A 
ATOM     19  C   UNL d   1     -55.358-101.020 -42.298  0.00  0.00     0.028 A 
ENDBRANCH   4  15
BRANCH   3  20
ATOM     20  C   UNL d   1     -58.345 -99.411 -44.035  0.00  0.00     0.042 A 
ATOM     21  C   UNL d   1     -58.956 -99.042 -44.397  0.00  0.00     0.096 A 
ATOM     22  C   UNL d   1     -59.516 -98.760 -43.938  0.00  0.00     0.024 A 
ATOM     23  C   UNL d   1     -59.488 -98.833 -43.117  0.00  0.00     0.002 A 
ATOM     24  C   UNL d   1     -58.901 -99.188 -42.754  0.00  0.00     0.000 A 
ATOM     25  C   UNL d   1     -58.318 -99.484 -43.214  0.00  0.00     0.004 A 
BRANCH  21  26
ATOM     26  O   UNL d   1     -58.984 -98.969 -45.218  0.00  0.00    -0.328 OA
ATOM     27  C   UNL d   1     -59.654 -98.937 -45.555  0.00  0.00     0.181 C 
ENDBRANCH  21  26
ENDBRANCH   3  20
TORSDOF 6
ENDMDL
