MODEL 1
REMARK VINA RESULT:      -5.6      0.000      0.000
REMARK  2 active torsions:
REMARK  status: ('A' for Active; 'I' for Inactive)
REMARK    1  A    between atoms: C_6  and  C_1 
REMARK       I    between atoms: C_7  and  N_8 
REMARK    2  A    between atoms: N_8  and  C_10 
ROOT
ATOM      1  C   UNL d   1      57.797  -0.126  30.407  0.00  0.00     0.025 A 
ATOM      2  C   UNL d   1      58.308  -0.716  30.159  0.00  0.00     0.021 A 
ATOM      3  C   UNL d   1      58.773  -0.603  29.468  0.00  0.00     0.085 A 
ATOM      4  C   UNL d   1      57.749   0.578  29.965  0.00  0.00     0.002 A 
ATOM      5  C   UNL d   1      58.190   0.682  29.312  0.00  0.00     0.002 A 
ATOM      6  C   UNL d   1      58.718   0.100  29.036  0.00  0.00     0.019 A 
ENDROOT
BRANCH   1   7
ATOM      7  C   UNL d   1      57.358  -0.236  31.062  0.00  0.00     0.111 A 
ATOM      8  N   UNL d   1      56.982  -0.911  31.320  0.00  0.00    -0.239 NA
ATOM      9  C   UNL d   1      56.600  -0.720  32.040  0.00  0.00     0.088 A 
ATOM     10  C   UNL d   1      56.136  -1.183  32.553  0.00  0.00     0.020 A 
ATOM     11  C   UNL d   1      56.758   0.074  32.199  0.00  0.00     0.049 A 
ATOM     12  C   UNL d   1      55.830  -0.844  33.227  0.00  0.00     0.002 A 
ATOM     13  C   UNL d   1      55.995  -0.014  33.393  0.00  0.00     0.001 A 
ATOM     14  C   UNL d   1      56.453   0.418  32.874  0.00  0.00     0.008 A 
ATOM     15  S   UNL d   1      57.235   0.363  31.575  0.00  0.00    -0.066 SA
ENDBRANCH   1   7
BRANCH   3  16
ATOM     16  N   UNL d   1      59.296  -1.222  29.225  0.00  0.00    -0.208 NA
ATOM     17  C   UNL d   1      60.111  -1.079  29.256  0.00  0.00     0.279 C 
ATOM     18  O   UNL d   1      60.599  -1.678  29.022  0.00  0.00    -0.265 OA
ATOM     19  C   UNL d   1      60.414  -0.363  29.513  0.00  0.00     0.068 C 
ENDBRANCH   3  16
TORSDOF 2
ENDMDL
MODEL 2
REMARK VINA RESULT:      -4.8      1.738      4.137
REMARK  2 active torsions:
REMARK  status: ('A' for Active; 'I' for Inactive)
REMARK    1  A    between atoms: C_6  and  C_1 
REMARK       I    between atoms: C_7  and  N_8 
REMARK    2  A    between atoms: N_8  and  C_10 
ROOT
ATOM      1  C   UNL d   1      57.491  -0.041  31.033  0.00  0.00     0.025 A 
ATOM      2  C   UNL d   1      57.248  -0.742  31.380  0.00  0.00     0.021 A 
ATOM      3  C   UNL d   1      56.652  -0.730  31.972  0.00  0.00     0.085 A 
ATOM      4  C   UNL d   1      57.137   0.672  31.276  0.00  0.00     0.002 A 
ATOM      5  C   UNL d   1      56.573   0.680  31.836  0.00  0.00     0.002 A 
ATOM      6  C   UNL d   1      56.306  -0.016  32.207  0.00  0.00     0.019 A 
ENDROOT
BRANCH   1   7
ATOM      7  C   UNL d   1      58.056  -0.055  30.473  0.00  0.00     0.111 A 
ATOM      8  N   UNL d   1      58.126  -0.545  29.826  0.00  0.00    -0.239 NA
ATOM      9  C   UNL d   1      58.823  -0.322  29.421  0.00  0.00     0.088 A 
ATOM     10  C   UNL d   1      59.175  -0.622  28.729  0.00  0.00     0.020 A 
ATOM     11  C   UNL d   1      59.160   0.305  29.839  0.00  0.00     0.049 A 
ATOM     12  C   UNL d   1      59.866  -0.290  28.457  0.00  0.00     0.002 A 
ATOM     13  C   UNL d   1      60.218   0.365  28.894  0.00  0.00     0.001 A 
ATOM     14  C   UNL d   1      59.853   0.641  29.571  0.00  0.00     0.008 A 
ATOM     15  S   UNL d   1      58.666   0.460  30.496  0.00  0.00    -0.066 SA
ENDBRANCH   1   7
BRANCH   3  16
ATOM     16  N   UNL d   1      56.412  -1.463  32.322  0.00  0.00    -0.208 NA
ATOM     17  C   UNL d   1      55.940  -1.435  33.001  0.00  0.00     0.279 C 
ATOM     18  O   UNL d   1      55.718  -2.141  33.325  0.00  0.00    -0.265 OA
ATOM     19  C   UNL d   1      55.704  -0.726  33.334  0.00  0.00     0.068 C 
ENDBRANCH   3  16
TORSDOF 2
ENDMDL
MODEL 3
REMARK VINA RESULT:      -4.2      1.422      1.952
REMARK  2 active torsions:
REMARK  status: ('A' for Active; 'I' for Inactive)
REMARK    1  A    between atoms: C_6  and  C_1 
REMARK       I    between atoms: C_7  and  N_8 
REMARK    2  A    between atoms: N_8  and  C_10 
ROOT
ATOM      1  C   UNL d   1      57.519   0.489  31.964  0.00  0.00     0.025 A 
ATOM      2  C   UNL d   1      57.368   0.470  31.159  0.00  0.00     0.021 A 
ATOM      3  C   UNL d   1      58.000   0.560  30.613  0.00  0.00     0.085 A 
ATOM      4  C   UNL d   1      58.302   0.597  32.224  0.00  0.00     0.002 A 
ATOM      5  C   UNL d   1      58.898   0.682  31.705  0.00  0.00     0.002 A 
ATOM      6  C   UNL d   1      58.775   0.667  30.881  0.00  0.00     0.019 A 
ENDROOT
BRANCH   1   7
ATOM      7  C   UNL d   1      56.918   0.404  32.479  0.00  0.00     0.111 A 
ATOM      8  N   UNL d   1      56.188   0.063  32.363  0.00  0.00    -0.239 NA
ATOM      9  C   UNL d   1      55.771   0.121  33.086  0.00  0.00     0.088 A 
ATOM     10  C   UNL d   1      55.005  -0.128  33.300  0.00  0.00     0.020 A 
ATOM     11  C   UNL d   1      56.266   0.500  33.626  0.00  0.00     0.049 A 
ATOM     12  C   UNL d   1      54.740   0.004  34.057  0.00  0.00     0.002 A 
ATOM     13  C   UNL d   1      55.259   0.401  34.622  0.00  0.00     0.001 A 
ATOM     14  C   UNL d   1      56.005   0.636  34.387  0.00  0.00     0.008 A 
ATOM     15  S   UNL d   1      56.983   0.671  33.228  0.00  0.00    -0.066 SA
ENDBRANCH   1   7
BRANCH   3  16
ATOM     16  N   UNL d   1      57.827   0.538  29.785  0.00  0.00    -0.208 NA
ATOM     17  C   UNL d   1      58.094  -0.113  29.347  0.00  0.00     0.279 C 
ATOM     18  O   UNL d   1      57.922  -0.122  28.559  0.00  0.00    -0.265 OA
ATOM     19  C   UNL d   1      58.514  -0.723  29.695  0.00  0.00     0.068 C 
ENDBRANCH   3  16
TORSDOF 2
ENDMDL
