MODEL 1
REMARK VINA RESULT:      35.9      0.000      0.000
REMARK  3 active torsions:
REMARK  status: ('A' for Active; 'I' for Inactive)
REMARK    1  A    between atoms: S_4  and  C_1 
REMARK    2  A    between atoms: N_2  and  C_5 
REMARK    3  A    between atoms: C_9  and  S_4 
ROOT
ATOM      1  C   UNL d   1      57.158  49.206  50.791  0.00  0.00     0.133 A 
ATOM      2  C   UNL d   1      57.933  49.480  51.004  0.00  0.00     0.051 A 
ATOM      3  C   UNL d   1      56.592  49.182  51.418  0.00  0.00     0.024 A 
ATOM      4  C   UNL d   1      58.101  49.701  51.768  0.00  0.00     0.008 A 
ATOM      5  C   UNL d   1      56.790  49.409  52.167  0.00  0.00     0.002 A 
ATOM      6  C   UNL d   1      57.526  49.668  52.363  0.00  0.00     0.001 A 
ENDROOT
BRANCH   2   7
ATOM      7  S   UNL d   1      58.544  49.530  50.437  0.00  0.00    -0.082 SA
BRANCH   7   8
ATOM      8  C   UNL d   1      59.320  49.579  50.684  0.00  0.00     0.068 A 
ATOM      9  C   UNL d   1      59.674  49.586  51.426  0.00  0.00     0.110 A 
ATOM     10  N   UNL d   1      60.459  49.644  51.325  0.00  0.00    -0.147 NA
ATOM     11  C   UNL d   1      59.249  49.538  52.151  0.00  0.00     0.023 C 
ATOM     12  N   UNL d   1      60.641  49.676  50.558  0.00  0.00    -0.147 NA
ATOM     13  C   UNL d   1      59.921  49.635  50.127  0.00  0.00     0.110 A 
ATOM     14  C   UNL d   1      59.825  49.648  49.305  0.00  0.00     0.023 C 
ENDBRANCH   7   8
ENDBRANCH   2   7
BRANCH   1  15
ATOM     15  N   UNL d   1      56.930  48.967  50.028  0.00  0.00    -0.113 N 
ATOM     16  O   UNL d   1      56.667  49.502  49.512  0.00  0.00    -0.532 OA
ATOM     17  O   UNL d   1      56.985  48.156  49.821  0.00  0.00    -0.532 OA
ENDBRANCH   1  15
TORSDOF 3
ENDMDL
MODEL 2
REMARK VINA RESULT:      38.6      1.684      3.241
REMARK  3 active torsions:
REMARK  status: ('A' for Active; 'I' for Inactive)
REMARK    1  A    between atoms: S_4  and  C_1 
REMARK    2  A    between atoms: N_2  and  C_5 
REMARK    3  A    between atoms: C_9  and  S_4 
ROOT
ATOM      1  C   UNL d   1      60.339  49.356  51.007  0.00  0.00     0.133 A 
ATOM      2  C   UNL d   1      59.614  49.565  50.619  0.00  0.00     0.051 A 
ATOM      3  C   UNL d   1      61.006  49.239  50.502  0.00  0.00     0.024 A 
ATOM      4  C   UNL d   1      59.583  49.644  49.810  0.00  0.00     0.008 A 
ATOM      5  C   UNL d   1      60.944  49.325  49.702  0.00  0.00     0.002 A 
ATOM      6  C   UNL d   1      60.253  49.524  49.339  0.00  0.00     0.001 A 
ENDROOT
BRANCH   2   7
ATOM      7  S   UNL d   1      58.914  49.697  51.053  0.00  0.00    -0.082 SA
BRANCH   7   8
ATOM      8  C   UNL d   1      58.191  49.653  50.676  0.00  0.00     0.068 A 
ATOM      9  C   UNL d   1      57.417  49.604  50.948  0.00  0.00     0.110 A 
ATOM     10  N   UNL d   1      56.934  49.577  50.320  0.00  0.00    -0.147 NA
ATOM     11  C   UNL d   1      57.205  49.586  51.763  0.00  0.00     0.023 C 
ATOM     12  N   UNL d   1      57.347  49.606  49.648  0.00  0.00    -0.147 NA
ATOM     13  C   UNL d   1      58.160  49.656  49.855  0.00  0.00     0.110 A 
ATOM     14  C   UNL d   1      58.808  49.699  49.343  0.00  0.00     0.023 C 
ENDBRANCH   7   8
ENDBRANCH   2   7
BRANCH   1  15
ATOM     15  N   UNL d   1      60.429  49.262  51.829  0.00  0.00    -0.113 N 
ATOM     16  O   UNL d   1      61.113  48.999  52.121  0.00  0.00    -0.532 OA
ATOM     17  O   UNL d   1      59.787  49.449  52.333  0.00  0.00    -0.532 OA
ENDBRANCH   1  15
TORSDOF 3
ENDMDL
