MODEL 1
REMARK VINA RESULT:       0.4      0.000      0.000
REMARK  6 active torsions:
REMARK  status: ('A' for Active; 'I' for Inactive)
REMARK    1  A    between atoms: C_6  and  C_1 
REMARK    2  A    between atoms: C_9  and  C_2 
REMARK    3  A    between atoms: N_8  and  C_3 
REMARK       I    between atoms: N_7  and  C_6 
REMARK    4  A    between atoms: C_13  and  N_7 
REMARK    5  A    between atoms: C_12  and  N_8 
REMARK    6  A    between atoms: O_19  and  C_14 
ROOT
ATOM      1  C   UNL d   1     -41.424-122.409 -52.254  0.00  0.00     0.108 A 
ATOM      2  C   UNL d   1     -41.288-121.915 -51.604  0.00  0.00     0.094 A 
ATOM      3  C   UNL d   1     -41.327-123.171 -51.184  0.00  0.00     0.194 A 
ATOM      4  N   UNL d   1     -41.228-122.394 -50.936  0.00  0.00    -0.221 NA
ATOM      5  S   UNL d   1     -41.444-123.182 -51.972  0.00  0.00    -0.042 SA
ENDROOT
BRANCH   1   6
ATOM      6  C   UNL d   1     -41.521-122.182 -53.038  0.00  0.00     0.287 C 
ATOM      7  N   UNL d   1     -41.976-122.639 -53.554  0.00  0.00    -0.206 NA
ATOM      8  O   UNL d   1     -41.163-121.487 -53.328  0.00  0.00    -0.265 OA
BRANCH   7   9
ATOM      9  C   UNL d   1     -42.075-122.416 -54.336  0.00  0.00     0.104 A 
ATOM     10  C   UNL d   1     -42.818-122.224 -54.591  0.00  0.00     0.118 A 
ATOM     11  N   UNL d   1     -42.913-122.001 -55.376  0.00  0.00    -0.241 NA
ATOM     12  C   UNL d   1     -42.290-121.976 -55.865  0.00  0.00     0.099 A 
ATOM     13  C   UNL d   1     -41.547-122.169 -55.609  0.00  0.00     0.022 A 
ATOM     14  C   UNL d   1     -41.425-122.396 -54.824  0.00  0.00     0.022 A 
ENDBRANCH   7   9
ENDBRANCH   1   6
BRANCH   2  15
ATOM     15  C   UNL d   1     -41.238-121.114 -51.704  0.00  0.00     0.018 A 
ATOM     16  C   UNL d   1     -41.181-120.790 -52.463  0.00  0.00     0.002 A 
ATOM     17  C   UNL d   1     -41.130-119.969 -52.553  0.00  0.00     0.000 A 
ATOM     18  C   UNL d   1     -41.138-119.478 -51.880  0.00  0.00     0.000 A 
ATOM     19  C   UNL d   1     -41.193-119.785 -51.159  0.00  0.00     0.000 A 
ATOM     20  C   UNL d   1     -41.244-120.612 -51.045  0.00  0.00     0.002 A 
ENDBRANCH   2  15
BRANCH   3  21
ATOM     21  N   UNL d   1     -41.307-123.817 -50.697  0.00  0.00    -0.221 NA
BRANCH  21  22
ATOM     22  C   UNL d   1     -41.625-123.762 -49.934  0.00  0.00     0.084 A 
ATOM     23  C   UNL d   1     -42.447-123.797 -49.832  0.00  0.00     0.021 A 
ATOM     24  C   UNL d   1     -42.768-123.744 -49.092  0.00  0.00     0.026 A 
ATOM     25  C   UNL d   1     -42.256-123.654 -48.438  0.00  0.00     0.094 A 
ATOM     26  C   UNL d   1     -41.476-123.621 -48.535  0.00  0.00     0.026 A 
ATOM     27  C   UNL d   1     -41.139-123.675 -49.295  0.00  0.00     0.021 A 
BRANCH  25  28
ATOM     28  O   UNL d   1     -42.571-123.597 -47.653  0.00  0.00    -0.328 OA
ATOM     29  C   UNL d   1     -42.144-123.239 -47.039  0.00  0.00     0.181 C 
ENDBRANCH  25  28
ENDBRANCH  21  22
ENDBRANCH   3  21
TORSDOF 6
ENDMDL
