MODEL 1
REMARK VINA RESULT:      27.4      0.000      0.000
REMARK  4 active torsions:
REMARK  status: ('A' for Active; 'I' for Inactive)
REMARK    1  A    between atoms: N_5  and  C_1 
REMARK    2  A    between atoms: N_9  and  N_5 
REMARK    3  A    between atoms: C_7  and  C_8 
REMARK    4  A    between atoms: C_12  and  N_9 
ROOT
ATOM      1  N   UNL d   1      13.438  12.584  -1.980  0.00  0.00    -0.146 NA
ENDROOT
BRANCH   1   2
ATOM      2  C   UNL d   1      13.884  12.390  -1.253  0.00  0.00     0.122 A 
ATOM      3  C   UNL d   1      13.562  12.068  -0.592  0.00  0.00     0.101 A 
ATOM      4  N   UNL d   1      14.168  11.968  -0.025  0.00  0.00    -0.244 NA
ATOM      5  C   UNL d   1      12.776  11.865  -0.476  0.00  0.00     0.022 C 
ATOM      6  C   UNL d   1      14.859  12.234  -0.353  0.00  0.00     0.083 A 
ATOM      7  C   UNL d   1      14.692  12.504  -1.131  0.00  0.00     0.039 A 
ATOM      8  C   UNL d   1      15.642  12.283  -0.078  0.00  0.00     0.019 A 
ATOM      9  C   UNL d   1      15.298  12.815  -1.618  0.00  0.00     0.003 A 
ATOM     10  C   UNL d   1      16.074  12.858  -1.331  0.00  0.00     0.000 A 
ATOM     11  C   UNL d   1      16.256  12.590  -0.550  0.00  0.00     0.002 A 
ENDBRANCH   1   2
BRANCH   1  12
ATOM     12  N   UNL d   1      13.388  12.038  -2.601  0.00  0.00    -0.148 NA
BRANCH  12  13
ATOM     13  C   UNL d   1      13.266  12.298  -3.371  0.00  0.00     0.103 A 
ATOM     14  C   UNL d   1      13.378  13.066  -3.564  0.00  0.00     0.027 A 
ATOM     15  C   UNL d   1      13.256  13.326  -4.333  0.00  0.00     0.066 A 
ATOM     16  C   UNL d   1      13.022  12.802  -4.897  0.00  0.00     0.006 A 
ATOM     17  C   UNL d   1      12.908  12.027  -4.705  0.00  0.00     0.002 A 
ATOM     18  C   UNL d   1      13.030  11.779  -3.945  0.00  0.00     0.021 A 
BRANCH  15  19
ATOM     19  C   UNL d   1      13.361  14.109  -4.573  0.00  0.00     0.211 C 
ATOM     20  O   UNL d   1      13.894  14.280  -5.193  0.00  0.00    -0.644 OA
ATOM     21  O   UNL d   1      12.939  14.728  -4.200  0.00  0.00    -0.644 OA
ENDBRANCH  15  19
ENDBRANCH  12  13
ENDBRANCH   1  12
TORSDOF 4
ENDMDL
MODEL 2
REMARK VINA RESULT:      30.4      1.901      3.973
REMARK  4 active torsions:
REMARK  status: ('A' for Active; 'I' for Inactive)
REMARK    1  A    between atoms: N_5  and  C_1 
REMARK    2  A    between atoms: N_9  and  N_5 
REMARK    3  A    between atoms: C_7  and  C_8 
REMARK    4  A    between atoms: C_12  and  N_9 
ROOT
ATOM      1  N   UNL d   1      13.898  13.510  -2.309  0.00  0.00    -0.146 NA
ENDROOT
BRANCH   1   2
ATOM      2  C   UNL d   1      13.564  12.924  -2.866  0.00  0.00     0.122 A 
ATOM      3  C   UNL d   1      13.425  12.154  -2.689  0.00  0.00     0.101 A 
ATOM      4  N   UNL d   1      13.107  11.780  -3.365  0.00  0.00    -0.244 NA
ATOM      5  C   UNL d   1      13.565  11.780  -1.972  0.00  0.00     0.022 C 
ATOM      6  C   UNL d   1      13.056  12.334  -3.952  0.00  0.00     0.083 A 
ATOM      7  C   UNL d   1      13.343  13.064  -3.648  0.00  0.00     0.039 A 
ATOM      8  C   UNL d   1      12.791  12.314  -4.740  0.00  0.00     0.019 A 
ATOM      9  C   UNL d   1      13.362  13.751  -4.125  0.00  0.00     0.003 A 
ATOM     10  C   UNL d   1      13.095  13.715  -4.909  0.00  0.00     0.000 A 
ATOM     11  C   UNL d   1      12.804  12.989  -5.228  0.00  0.00     0.002 A 
ENDBRANCH   1   2
BRANCH   1  12
ATOM     12  N   UNL d   1      14.564  13.324  -1.852  0.00  0.00    -0.148 NA
BRANCH  12  13
ATOM     13  C   UNL d   1      14.837  13.852  -1.286  0.00  0.00     0.103 A 
ATOM     14  C   UNL d   1      14.827  14.640  -1.425  0.00  0.00     0.027 A 
ATOM     15  C   UNL d   1      15.099  15.169  -0.859  0.00  0.00     0.066 A 
ATOM     16  C   UNL d   1      15.379  14.890  -0.157  0.00  0.00     0.006 A 
ATOM     17  C   UNL d   1      15.390  14.097  -0.014  0.00  0.00     0.002 A 
ATOM     18  C   UNL d   1      15.119  13.583  -0.578  0.00  0.00     0.021 A 
BRANCH  15  19
ATOM     19  C   UNL d   1      15.106  15.988  -0.964  0.00  0.00     0.211 C 
ATOM     20  O   UNL d   1      14.698  16.321  -1.612  0.00  0.00    -0.644 OA
ATOM     21  O   UNL d   1      15.518  16.481  -0.428  0.00  0.00    -0.644 OA
ENDBRANCH  15  19
ENDBRANCH  12  13
ENDBRANCH   1  12
TORSDOF 4
ENDMDL
