MODEL 1
REMARK VINA RESULT:      21.6      0.000      0.000
REMARK  3 active torsions:
REMARK  status: ('A' for Active; 'I' for Inactive)
REMARK    1  A    between atoms: C_7  and  C_1 
REMARK    2  A    between atoms: N_8  and  C_7 
REMARK    3  A    between atoms: C_11  and  N_8 
ROOT
ATOM      1  C   UNL d   1     -57.590 -98.760 -44.391  0.00  0.00     0.145 A 
ATOM      2  C   UNL d   1     -58.025 -98.760 -43.698  0.00  0.00     0.304 A 
ATOM      3  C   UNL d   1     -57.977 -98.760 -45.120  0.00  0.00     0.304 A 
ATOM      4  O   UNL d   1     -58.851 -98.758 -43.726  0.00  0.00    -0.277 OA
ATOM      5  O   UNL d   1     -58.802 -98.758 -45.148  0.00  0.00    -0.277 OA
ATOM      6  C   UNL d   1     -59.237 -98.757 -44.448  0.00  0.00     0.203 A 
ATOM      7  O   UNL d   1     -57.616 -98.760 -42.954  0.00  0.00    -0.259 OA
ATOM      8  O   UNL d   1     -57.518 -98.760 -45.836  0.00  0.00    -0.259 OA
ATOM      9  C   UNL d   1     -59.807 -98.756 -45.062  0.00  0.00     0.062 C 
ATOM     10  C   UNL d   1     -59.817 -98.756 -43.851  0.00  0.00     0.062 C 
ENDROOT
BRANCH   1  11
ATOM     11  C   UNL d   1     -56.758 -98.762 -44.363  0.00  0.00     0.111 C 
BRANCH  11  12
ATOM     12  N   UNL d   1     -56.364 -99.302 -43.880  0.00  0.00    -0.225 NA
BRANCH  12  13
ATOM     13  C   UNL d   1     -55.812 -99.831 -44.211  0.00  0.00     0.163 A 
ATOM     14  N   UNL d   1     -55.270 -99.563 -44.768  0.00  0.00    -0.225 NA
ATOM     15  C   UNL d   1     -54.720-100.090 -45.099  0.00  0.00     0.101 A 
ATOM     16  C   UNL d   1     -54.718-100.879 -44.869  0.00  0.00     0.021 A 
ATOM     17  C   UNL d   1     -55.262-101.149 -44.310  0.00  0.00     0.005 A 
ATOM     18  C   UNL d   1     -55.812-100.622 -43.980  0.00  0.00     0.039 A 
ENDBRANCH  12  13
ENDBRANCH  11  12
ENDBRANCH   1  11
TORSDOF 3
ENDMDL
