MODEL 1
REMARK VINA RESULT:      -5.5      0.000      0.000
REMARK  0 active torsions:
REMARK  status: ('A' for Active; 'I' for Inactive)
ROOT
ATOM      1  C   UNL d   1     -41.426-121.874 -52.696  0.00  0.00     0.267 A 
ATOM      2  N   UNL d   1     -41.369-121.809 -51.901  0.00  0.00    -0.270 N 
ATOM      3  C   UNL d   1     -41.419-122.453 -53.058  0.00  0.00     0.081 A 
ATOM      4  C   UNL d   1     -41.355-123.248 -52.864  0.00  0.00     0.105 A 
ATOM      5  O   UNL d   1     -41.286-123.601 -52.255  0.00  0.00    -0.305 OA
ATOM      6  C   UNL d   1     -41.289-122.441 -51.364  0.00  0.00     0.090 A 
ATOM      7  C   UNL d   1     -41.250-123.272 -51.527  0.00  0.00     0.116 A 
ATOM      8  C   UNL d   1     -41.493-122.227 -53.839  0.00  0.00     0.028 A 
ATOM      9  O   UNL d   1     -41.502-121.177 -53.122  0.00  0.00    -0.267 OA
ATOM     10  C   UNL d   1     -41.366-123.815 -53.452  0.00  0.00     0.026 A 
ATOM     11  C   UNL d   1     -41.505-122.796 -54.436  0.00  0.00     0.103 A 
ATOM     12  C   UNL d   1     -41.391-121.055 -51.586  0.00  0.00     0.102 C 
ATOM     13  N   UNL d   1     -41.579-122.565 -55.220  0.00  0.00    -0.148 N 
ATOM     14  C   UNL d   1     -41.441-123.590 -54.243  0.00  0.00     0.023 A 
ATOM     15  C   UNL d   1     -41.244-122.165 -50.564  0.00  0.00     0.020 A 
ATOM     16  C   UNL d   1     -41.168-123.817 -50.897  0.00  0.00     0.026 A 
ATOM     17  C   UNL d   1     -41.161-122.717 -49.931  0.00  0.00     0.002 A 
ATOM     18  C   UNL d   1     -41.123-123.550 -50.098  0.00  0.00     0.002 A 
ENDROOT
TORSDOF 0
ENDMDL
MODEL 2
REMARK VINA RESULT:      -4.5      0.843      2.982
REMARK  0 active torsions:
REMARK  status: ('A' for Active; 'I' for Inactive)
ROOT
ATOM      1  C   UNL d   1     -41.523-121.903 -52.078  0.00  0.00     0.267 A 
ATOM      2  N   UNL d   1     -41.582-121.838 -52.874  0.00  0.00    -0.270 N 
ATOM      3  C   UNL d   1     -41.398-122.473 -51.726  0.00  0.00     0.081 A 
ATOM      4  C   UNL d   1     -41.267-123.256 -51.932  0.00  0.00     0.105 A 
ATOM      5  O   UNL d   1     -41.239-123.605 -52.547  0.00  0.00    -0.305 OA
ATOM      6  C   UNL d   1     -41.500-122.461 -53.422  0.00  0.00     0.090 A 
ATOM      7  C   UNL d   1     -41.341-123.280 -53.271  0.00  0.00     0.116 A 
ATOM      8  C   UNL d   1     -41.393-122.251 -50.940  0.00  0.00     0.028 A 
ATOM      9  O   UNL d   1     -41.624-121.215 -51.641  0.00  0.00    -0.267 OA
ATOM     10  C   UNL d   1     -41.130-123.815 -51.352  0.00  0.00     0.026 A 
ATOM     11  C   UNL d   1     -41.256-122.811 -50.351  0.00  0.00     0.103 A 
ATOM     12  C   UNL d   1     -41.736-121.095 -53.177  0.00  0.00     0.102 C 
ATOM     13  N   UNL d   1     -41.251-122.584 -49.563  0.00  0.00    -0.148 N 
ATOM     14  C   UNL d   1     -41.124-123.594 -50.557  0.00  0.00     0.023 A 
ATOM     15  C   UNL d   1     -41.596-122.189 -54.218  0.00  0.00     0.020 A 
ATOM     16  C   UNL d   1     -41.280-123.817 -53.911  0.00  0.00     0.026 A 
ATOM     17  C   UNL d   1     -41.534-122.733 -54.861  0.00  0.00     0.002 A 
ATOM     18  C   UNL d   1     -41.375-123.554 -54.706  0.00  0.00     0.002 A 
ENDROOT
TORSDOF 0
ENDMDL
MODEL 3
REMARK VINA RESULT:      -3.7      0.886      1.881
REMARK  0 active torsions:
REMARK  status: ('A' for Active; 'I' for Inactive)
ROOT
ATOM      1  C   UNL d   1     -41.542-123.035 -53.370  0.00  0.00     0.267 A 
ATOM      2  N   UNL d   1     -41.355-123.083 -52.593  0.00  0.00    -0.270 N 
ATOM      3  C   UNL d   1     -41.746-122.476 -53.704  0.00  0.00     0.081 A 
ATOM      4  C   UNL d   1     -41.876-121.695 -53.488  0.00  0.00     0.105 A 
ATOM      5  O   UNL d   1     -41.821-121.338 -52.880  0.00  0.00    -0.305 OA
ATOM      6  C   UNL d   1     -41.376-122.455 -52.046  0.00  0.00     0.090 A 
ATOM      7  C   UNL d   1     -41.591-121.645 -52.178  0.00  0.00     0.116 A 
ATOM      8  C   UNL d   1     -41.866-122.712 -54.477  0.00  0.00     0.028 A 
ATOM      9  O   UNL d   1     -41.483-123.725 -53.810  0.00  0.00    -0.267 OA
ATOM     10  C   UNL d   1     -42.126-121.152 -54.045  0.00  0.00     0.026 A 
ATOM     11  C   UNL d   1     -42.119-122.168 -55.042  0.00  0.00     0.103 A 
ATOM     12  C   UNL d   1     -41.123-123.814 -52.310  0.00  0.00     0.102 C 
ATOM     13  N   UNL d   1     -42.239-122.408 -55.817  0.00  0.00    -0.148 N 
ATOM     14  C   UNL d   1     -42.249-121.387 -54.826  0.00  0.00     0.023 A 
ATOM     15  C   UNL d   1     -41.142-122.709 -51.272  0.00  0.00     0.020 A 
ATOM     16  C   UNL d   1     -41.573-121.100 -51.543  0.00  0.00     0.026 A 
ATOM     17  C   UNL d   1     -41.125-122.156 -50.634  0.00  0.00     0.002 A 
ATOM     18  C   UNL d   1     -41.342-121.346 -50.770  0.00  0.00     0.002 A 
ENDROOT
TORSDOF 0
ENDMDL
