MODEL 1
REMARK VINA RESULT:      70.4      0.000      0.000
REMARK  4 active torsions:
REMARK  status: ('A' for Active; 'I' for Inactive)
REMARK    1  A    between atoms: C_5  and  N_1 
REMARK    2  A    between atoms: C_6  and  C_5 
REMARK       I    between atoms: N_9  and  C_6 
REMARK    3  A    between atoms: C_13  and  N_9 
REMARK    4  A    between atoms: O_19  and  C_14 
ROOT
ATOM      1  C   UNL d   1      59.993  48.579  50.862  0.00  0.00     0.297 C 
ATOM      2  N   UNL d   1      59.582  49.256  51.096  0.00  0.00    -0.207 NA
ATOM      3  O   UNL d   1      59.620  48.014  50.390  0.00  0.00    -0.264 OA
ENDROOT
BRANCH   1   4
ATOM      4  C   UNL d   1      60.771  48.467  51.098  0.00  0.00     0.148 C 
BRANCH   4   5
ATOM      5  N   UNL d   1      61.286  48.026  50.628  0.00  0.00    -0.235 N 
ATOM      6  C   UNL d   1      61.249  47.193  50.644  0.00  0.00     0.273 A 
ATOM      7  C   UNL d   1      61.764  46.752  50.175  0.00  0.00     0.086 A 
ATOM      8  O   UNL d   1      60.693  46.815  51.132  0.00  0.00    -0.266 OA
ATOM      9  C   UNL d   1      61.732  45.925  50.185  0.00  0.00     0.012 C 
ATOM     10  S   UNL d   1      62.317  47.143  49.689  0.00  0.00    -0.077 SA
ATOM     11  C   UNL d   1      62.347  47.960  49.679  0.00  0.00     0.097 A 
ATOM     12  C   UNL d   1      61.832  48.401  50.149  0.00  0.00     0.274 A 
ATOM     13  O   UNL d   1      61.864  49.239  50.138  0.00  0.00    -0.266 OA
ENDBRANCH   4   5
ENDBRANCH   1   4
BRANCH   2  14
ATOM     14  C   UNL d   1      58.800  49.366  50.858  0.00  0.00     0.085 A 
ATOM     15  C   UNL d   1      58.610  49.356  50.064  0.00  0.00     0.021 A 
ATOM     16  C   UNL d   1      57.845  49.464  49.821  0.00  0.00     0.026 A 
ATOM     17  C   UNL d   1      57.246  49.586  50.388  0.00  0.00     0.094 A 
ATOM     18  C   UNL d   1      57.436  49.596  51.181  0.00  0.00     0.026 A 
ATOM     19  C   UNL d   1      58.227  49.484  51.417  0.00  0.00     0.021 A 
BRANCH  17  20
ATOM     20  O   UNL d   1      56.455  49.697  50.136  0.00  0.00    -0.328 OA
ATOM     21  C   UNL d   1      56.033  49.079  49.789  0.00  0.00     0.181 C 
ENDBRANCH  17  20
ENDBRANCH   2  14
TORSDOF 4
ENDMDL
