MODEL 1
REMARK VINA RESULT:      40.1      0.000      0.000
REMARK  7 active torsions:
REMARK  status: ('A' for Active; 'I' for Inactive)
REMARK    1  A    between atoms: C_3  and  C_1 
REMARK    2  A    between atoms: C_4  and  C_1 
REMARK    3  A    between atoms: N_2  and  C_6 
REMARK    4  A    between atoms: C_6  and  C_13 
REMARK    5  A    between atoms: O_12  and  C_14 
REMARK    6  A    between atoms: C_16  and  O_12 
REMARK    7  A    between atoms: C_13  and  C_16 
ROOT
ATOM      1  C   UNL d   1      13.401  12.957  -4.197  0.00  0.00     0.039 A 
ATOM      2  C   UNL d   1      12.779  13.094  -3.665  0.00  0.00     0.005 A 
ATOM      3  C   UNL d   1      14.001  12.435  -3.998  0.00  0.00     0.005 A 
ATOM      4  C   UNL d   1      13.370  12.185  -2.751  0.00  0.00     0.100 A 
ATOM      5  C   UNL d   1      12.770  12.708  -2.950  0.00  0.00     0.025 A 
ATOM      6  C   UNL d   1      13.982  12.046  -3.265  0.00  0.00     0.025 A 
ENDROOT
BRANCH   4   7
ATOM      7  O   UNL d   1      13.347  11.795  -2.010  0.00  0.00    -0.302 OA
BRANCH   7   8
ATOM      8  C   UNL d   1      13.911  11.966  -1.410  0.00  0.00     0.166 C 
BRANCH   8   9
ATOM      9  C   UNL d   1      13.685  11.955  -0.608  0.00  0.00     0.238 C 
ATOM     10  O   UNL d   1      12.905  11.781  -0.401  0.00  0.00    -0.283 OA
BRANCH   9  11
ATOM     11  C   UNL d   1      14.244  12.119  -0.020  0.00  0.00     0.125 C 
BRANCH  11  12
ATOM     12  N   UNL d   1      14.743  12.780  -0.092  0.00  0.00    -0.296 N 
ATOM     13  C   UNL d   1      14.432  13.540  -0.017  0.00  0.00     0.107 A 
ATOM     14  C   UNL d   1      14.938  14.191  -0.090  0.00  0.00     0.142 A 
ATOM     15  O   UNL d   1      15.751  14.083  -0.238  0.00  0.00    -0.300 OA
ATOM     16  C   UNL d   1      16.049  13.316  -0.311  0.00  0.00     0.142 A 
ATOM     17  C   UNL d   1      15.554  12.663  -0.240  0.00  0.00     0.107 A 
ENDBRANCH  11  12
ENDBRANCH   9  11
ENDBRANCH   8   9
ENDBRANCH   7   8
ENDBRANCH   4   7
BRANCH   1  18
ATOM     18  C   UNL d   1      13.416  13.345  -4.923  0.00  0.00     0.196 C 
ATOM     19  O   UNL d   1      13.253  12.931  -5.616  0.00  0.00    -0.287 OA
BRANCH  18  20
ATOM     20  C   UNL d   1      13.594  14.148  -4.953  0.00  0.00     0.039 A 
ATOM     21  C   UNL d   1      13.347  14.649  -4.343  0.00  0.00     0.004 A 
ATOM     22  C   UNL d   1      13.522  15.451  -4.369  0.00  0.00     0.011 A 
ATOM     23  C   UNL d   1      13.948  15.758  -5.011  0.00  0.00     0.058 A 
ATOM     24  C   UNL d   1      14.194  15.258  -5.620  0.00  0.00     0.011 A 
ATOM     25 CL   UNL d   1      14.125  16.561  -5.040  0.00  0.00    -0.082 Cl
ATOM     26  C   UNL d   1      14.015  14.453  -5.588  0.00  0.00     0.004 A 
ENDBRANCH  18  20
ENDBRANCH   1  18
TORSDOF 7
ENDMDL
