MODEL 1
REMARK VINA RESULT:      -6.6      0.000      0.000
REMARK  5 active torsions:
REMARK  status: ('A' for Active; 'I' for Inactive)
REMARK    1  A    between atoms: C_10  and  N_6 
REMARK    2  A    between atoms: N_13  and  C_9 
REMARK    3  A    between atoms: C_14  and  C_10 
REMARK    4  A    between atoms: C_21  and  N_13 
REMARK    5  A    between atoms: C_24  and  C_21 
ROOT
ATOM      1  C   UNL d   1     -45.998  12.804  22.779  0.00  0.00     0.176 A 
ATOM      2  C   UNL d   1     -46.289  12.156  23.146  0.00  0.00     0.159 A 
ATOM      3  N   UNL d   1     -46.448  13.458  22.675  0.00  0.00    -0.181 NA
ATOM      4  N   UNL d   1     -45.235  12.806  22.504  0.00  0.00    -0.240 N 
ATOM      5  N   UNL d   1     -45.067  11.508  22.970  0.00  0.00    -0.223 N 
ATOM      6  N   UNL d   1     -47.500  12.799  23.319  0.00  0.00    -0.258 N 
ATOM      7  C   UNL d   1     -44.771  12.166  22.598  0.00  0.00     0.343 A 
ATOM      8  C   UNL d   1     -45.819  11.507  23.240  0.00  0.00     0.287 A 
ATOM      9  C   UNL d   1     -47.190  13.461  22.939  0.00  0.00     0.292 A 
ATOM     10  O   UNL d   1     -44.010  12.164  22.325  0.00  0.00    -0.245 OA
ATOM     11  O   UNL d   1     -46.118  10.843  23.617  0.00  0.00    -0.265 OA
ATOM     12  C   UNL d   1     -44.941  13.460  22.134  0.00  0.00     0.105 C 
ATOM     13  C   UNL d   1     -44.586  10.832  23.072  0.00  0.00     0.107 C 
ENDROOT
BRANCH   6  14
ATOM     14  C   UNL d   1     -48.126  12.419  23.698  0.00  0.00     0.084 C 
BRANCH  14  15
ATOM     15  C   UNL d   1     -48.819  12.223  23.278  0.00  0.00     0.018 A 
ATOM     16  C   UNL d   1     -49.549  12.427  23.602  0.00  0.00     0.002 A 
ATOM     17  C   UNL d   1     -50.242  12.231  23.182  0.00  0.00     0.000 A 
ATOM     18  C   UNL d   1     -51.061  12.338  23.318  0.00  0.00     0.000 C 
ATOM     19  C   UNL d   1     -50.193  11.835  22.446  0.00  0.00     0.000 A 
ATOM     20  C   UNL d   1     -49.448  11.642  22.145  0.00  0.00     0.000 A 
ATOM     21  C   UNL d   1     -48.763  11.836  22.560  0.00  0.00     0.002 A 
ENDBRANCH  14  15
ENDBRANCH   6  14
BRANCH   9  22
ATOM     22  N   UNL d   1     -47.654  14.102  22.846  0.00  0.00    -0.365 NA
BRANCH  22  23
ATOM     23  C   UNL d   1     -47.954  14.880  22.823  0.00  0.00     0.164 C 
BRANCH  23  24
ATOM     24  C   UNL d   1     -48.259  15.191  22.106  0.00  0.00     0.035 C 
ATOM     25  C   UNL d   1     -48.966  15.633  22.105  0.00  0.00     0.003 C 
ENDBRANCH  23  24
ENDBRANCH  22  23
ENDBRANCH   9  22
TORSDOF 5
ENDMDL
