MODEL 1
REMARK VINA RESULT:       3.0      0.000      0.000
REMARK  12 active torsions:
REMARK  status: ('A' for Active; 'I' for Inactive)
REMARK    1  A    between atoms: C_23  and  N_1 
REMARK    2  A    between atoms: S_8  and  C_2 
REMARK    3  A    between atoms: C_7  and  C_11 
REMARK       I    between atoms: N_12  and  C_7 
REMARK    4  A    between atoms: C_24  and  S_8 
REMARK    5  A    between atoms: C_25  and  N_12 
REMARK    6  A    between atoms: C_13  and  C_25 
REMARK    7  A    between atoms: C_15  and  C_24 
REMARK    8  A    between atoms: O_26  and  C_15 
REMARK    9  A    between atoms: C_28  and  C_23 
REMARK   10  A    between atoms: C_27  and  O_26 
REMARK   11  A    between atoms: C_30  and  C_28 
REMARK   12  A    between atoms: C_29  and  C_30 
ROOT
ATOM      1  N   UNL d   1      58.787  -0.440  30.622  0.00  0.00    -0.253 N 
ATOM      2  C   UNL d   1      58.287  -1.006  30.314  0.00  0.00     0.182 A 
ATOM      3  C   UNL d   1      58.558   0.009  31.271  0.00  0.00     0.268 A 
ATOM      4  N   UNL d   1      57.552  -1.124  30.659  0.00  0.00    -0.222 NA
ATOM      5  C   UNL d   1      57.827  -0.107  31.616  0.00  0.00     0.074 A 
ATOM      6  C   UNL d   1      57.313  -0.681  31.309  0.00  0.00     0.088 A 
ATOM      7  C   UNL d   1      56.569  -0.804  31.654  0.00  0.00     0.024 A 
ATOM      8  C   UNL d   1      57.587   0.338  32.269  0.00  0.00     0.006 A 
ATOM      9  C   UNL d   1      56.339  -0.353  32.306  0.00  0.00     0.059 A 
ATOM     10  O   UNL d   1      59.073   0.583  31.579  0.00  0.00    -0.267 OA
ATOM     11  C   UNL d   1      56.852   0.221  32.614  0.00  0.00     0.005 A 
ENDROOT
BRANCH   9  12
ATOM     12  C   UNL d   1      55.593  -0.474  32.655  0.00  0.00     0.279 C 
ATOM     13  N   UNL d   1      55.420  -0.102  33.355  0.00  0.00    -0.204 NA
ATOM     14  O   UNL d   1      55.053  -0.968  32.279  0.00  0.00    -0.265 OA
BRANCH  13  15
ATOM     15  C   UNL d   1      55.973   0.388  33.716  0.00  0.00     0.127 C 
BRANCH  15  16
ATOM     16  C   UNL d   1      55.980   0.469  34.537  0.00  0.00     0.119 A 
ATOM     17  O   UNL d   1      55.401   0.420  35.102  0.00  0.00    -0.304 OA
ATOM     18  C   UNL d   1      55.726   0.549  35.844  0.00  0.00     0.123 A 
ATOM     19  C   UNL d   1      56.536   0.682  35.720  0.00  0.00     0.029 A 
ATOM     20  C   UNL d   1      56.696   0.634  34.927  0.00  0.00     0.028 A 
ENDBRANCH  15  16
ENDBRANCH  13  15
ENDBRANCH   9  12
BRANCH   2  21
ATOM     21  S   UNL d   1      58.517  -1.457  29.661  0.00  0.00    -0.044 SA
BRANCH  21  22
ATOM     22  C   UNL d   1      58.180  -2.192  29.527  0.00  0.00     0.107 C 
BRANCH  22  23
ATOM     23  C   UNL d   1      58.542  -2.714  28.999  0.00  0.00     0.307 C 
ATOM     24  O   UNL d   1      59.325  -2.592  28.753  0.00  0.00    -0.258 OA
BRANCH  23  25
ATOM     25  O   UNL d   1      58.109  -3.364  28.716  0.00  0.00    -0.271 OA
BRANCH  25  26
ATOM     26  C   UNL d   1      58.520  -4.041  28.480  0.00  0.00     0.126 C 
ATOM     27  C   UNL d   1      58.303  -4.757  28.802  0.00  0.00     0.029 C 
ENDBRANCH  25  26
ENDBRANCH  23  25
ENDBRANCH  22  23
ENDBRANCH  21  22
ENDBRANCH   2  21
BRANCH   1  28
ATOM     28  C   UNL d   1      59.535  -0.323  30.267  0.00  0.00     0.085 C 
BRANCH  28  29
ATOM     29  C   UNL d   1      59.616   0.184  29.622  0.00  0.00     0.019 C 
BRANCH  29  30
ATOM     30  C   UNL d   1      60.299   0.608  29.499  0.00  0.00     0.002 C 
BRANCH  30  31
ATOM     31  C   UNL d   1      60.627   0.682  28.748  0.00  0.00     0.000 C 
ATOM     32  C   UNL d   1      61.124   0.121  28.456  0.00  0.00     0.000 C 
ENDBRANCH  30  31
ENDBRANCH  29  30
ENDBRANCH  28  29
ENDBRANCH   1  28
TORSDOF 12
ENDMDL
MODEL 2
REMARK VINA RESULT:       3.4      1.404      2.820
REMARK  12 active torsions:
REMARK  status: ('A' for Active; 'I' for Inactive)
REMARK    1  A    between atoms: C_23  and  N_1 
REMARK    2  A    between atoms: S_8  and  C_2 
REMARK    3  A    between atoms: C_7  and  C_11 
REMARK       I    between atoms: N_12  and  C_7 
REMARK    4  A    between atoms: C_24  and  S_8 
REMARK    5  A    between atoms: C_25  and  N_12 
REMARK    6  A    between atoms: C_13  and  C_25 
REMARK    7  A    between atoms: C_15  and  C_24 
REMARK    8  A    between atoms: O_26  and  C_15 
REMARK    9  A    between atoms: C_28  and  C_23 
REMARK   10  A    between atoms: C_27  and  O_26 
REMARK   11  A    between atoms: C_30  and  C_28 
REMARK   12  A    between atoms: C_29  and  C_30 
ROOT
ATOM      1  N   UNL d   1      57.645  -0.983  30.602  0.00  0.00    -0.253 N 
ATOM      2  C   UNL d   1      57.918  -0.215  30.646  0.00  0.00     0.182 A 
ATOM      3  C   UNL d   1      57.262  -1.326  31.243  0.00  0.00     0.268 A 
ATOM      4  N   UNL d   1      57.807   0.212  31.337  0.00  0.00    -0.222 NA
ATOM      5  C   UNL d   1      57.150  -0.902  31.932  0.00  0.00     0.074 A 
ATOM      6  C   UNL d   1      57.425  -0.121  31.985  0.00  0.00     0.088 A 
ATOM      7  C   UNL d   1      57.314   0.316  32.681  0.00  0.00     0.024 A 
ATOM      8  C   UNL d   1      56.766  -1.236  32.583  0.00  0.00     0.006 A 
ATOM      9  C   UNL d   1      56.929  -0.029  33.325  0.00  0.00     0.059 A 
ATOM     10  O   UNL d   1      56.987  -2.107  31.191  0.00  0.00    -0.267 OA
ATOM     11  C   UNL d   1      56.654  -0.810  33.273  0.00  0.00     0.005 A 
ENDROOT
BRANCH   9  12
ATOM     12  C   UNL d   1      56.817   0.406  34.026  0.00  0.00     0.279 C 
ATOM     13  N   UNL d   1      56.074   0.677  34.205  0.00  0.00    -0.204 NA
ATOM     14  O   UNL d   1      57.463   0.549  34.514  0.00  0.00    -0.265 OA
BRANCH  13  15
ATOM     15  C   UNL d   1      55.440   0.525  33.705  0.00  0.00     0.127 C 
BRANCH  15  16
ATOM     16  C   UNL d   1      54.667   0.558  33.994  0.00  0.00     0.119 A 
ATOM     17  O   UNL d   1      54.354   0.515  34.740  0.00  0.00    -0.304 OA
ATOM     18  C   UNL d   1      53.537   0.581  34.702  0.00  0.00     0.123 A 
ATOM     19  C   UNL d   1      53.351   0.669  33.898  0.00  0.00     0.029 A 
ATOM     20  C   UNL d   1      54.034   0.656  33.463  0.00  0.00     0.028 A 
ENDBRANCH  15  16
ENDBRANCH  13  15
ENDBRANCH   9  12
BRANCH   2  21
ATOM     21  S   UNL d   1      58.304   0.130  30.002  0.00  0.00    -0.044 SA
BRANCH  21  22
ATOM     22  C   UNL d   1      59.081  -0.067  29.832  0.00  0.00     0.107 C 
BRANCH  22  23
ATOM     23  C   UNL d   1      59.468   0.310  29.207  0.00  0.00     0.307 C 
ATOM     24  O   UNL d   1      59.037   0.615  28.566  0.00  0.00    -0.258 OA
BRANCH  23  25
ATOM     25  O   UNL d   1      60.294   0.378  29.227  0.00  0.00    -0.271 OA
BRANCH  25  26
ATOM     26  C   UNL d   1      60.733   0.091  28.589  0.00  0.00     0.126 C 
ATOM     27  C   UNL d   1      61.124  -0.618  28.675  0.00  0.00     0.029 C 
ENDBRANCH  25  26
ENDBRANCH  23  25
ENDBRANCH  22  23
ENDBRANCH  21  22
ENDBRANCH   2  21
BRANCH   1  28
ATOM     28  C   UNL d   1      57.761  -1.415  29.896  0.00  0.00     0.085 C 
BRANCH  28  29
ATOM     29  C   UNL d   1      57.827  -2.236  29.916  0.00  0.00     0.019 C 
BRANCH  29  30
ATOM     30  C   UNL d   1      58.094  -2.656  29.272  0.00  0.00     0.002 C 
BRANCH  30  31
ATOM     31  C   UNL d   1      57.959  -3.465  29.202  0.00  0.00     0.000 C 
ATOM     32  C   UNL d   1      58.496  -3.944  28.845  0.00  0.00     0.000 C 
ENDBRANCH  30  31
ENDBRANCH  29  30
ENDBRANCH  28  29
ENDBRANCH   1  28
TORSDOF 12
ENDMDL
MODEL 3
REMARK VINA RESULT:       3.9      1.602      5.935
REMARK  12 active torsions:
REMARK  status: ('A' for Active; 'I' for Inactive)
REMARK    1  A    between atoms: C_23  and  N_1 
REMARK    2  A    between atoms: S_8  and  C_2 
REMARK    3  A    between atoms: C_7  and  C_11 
REMARK       I    between atoms: N_12  and  C_7 
REMARK    4  A    between atoms: C_24  and  S_8 
REMARK    5  A    between atoms: C_25  and  N_12 
REMARK    6  A    between atoms: C_13  and  C_25 
REMARK    7  A    between atoms: C_15  and  C_24 
REMARK    8  A    between atoms: O_26  and  C_15 
REMARK    9  A    between atoms: C_28  and  C_23 
REMARK   10  A    between atoms: C_27  and  O_26 
REMARK   11  A    between atoms: C_30  and  C_28 
REMARK   12  A    between atoms: C_29  and  C_30 
ROOT
ATOM      1  N   UNL d   1      56.905  -0.532  32.382  0.00  0.00    -0.253 N 
ATOM      2  C   UNL d   1      57.486   0.015  32.556  0.00  0.00     0.182 A 
ATOM      3  C   UNL d   1      56.915  -0.935  31.666  0.00  0.00     0.268 A 
ATOM      4  N   UNL d   1      58.079   0.159  32.009  0.00  0.00    -0.222 NA
ATOM      5  C   UNL d   1      57.504  -0.793  31.120  0.00  0.00     0.074 A 
ATOM      6  C   UNL d   1      58.098  -0.238  31.289  0.00  0.00     0.088 A 
ATOM      7  C   UNL d   1      58.700  -0.088  30.739  0.00  0.00     0.024 A 
ATOM      8  C   UNL d   1      57.524  -1.191  30.397  0.00  0.00     0.006 A 
ATOM      9  C   UNL d   1      58.710  -0.493  30.019  0.00  0.00     0.059 A 
ATOM     10  O   UNL d   1      56.321  -1.489  31.496  0.00  0.00    -0.267 OA
ATOM     11  C   UNL d   1      58.117  -1.047  29.849  0.00  0.00     0.005 A 
ENDROOT
BRANCH   9  12
ATOM     12  C   UNL d   1      59.313  -0.345  29.466  0.00  0.00     0.279 C 
ATOM     13  N   UNL d   1      59.637  -0.969  29.061  0.00  0.00    -0.204 NA
ATOM     14  O   UNL d   1      59.561   0.430  29.345  0.00  0.00    -0.265 OA
BRANCH  13  15
ATOM     15  C   UNL d   1      59.376  -1.737  29.195  0.00  0.00     0.127 C 
BRANCH  15  16
ATOM     16  C   UNL d   1      59.870  -2.377  29.031  0.00  0.00     0.119 A 
ATOM     17  O   UNL d   1      60.669  -2.491  29.106  0.00  0.00    -0.304 OA
ATOM     18  C   UNL d   1      60.866  -3.247  28.855  0.00  0.00     0.123 A 
ATOM     19  C   UNL d   1      60.154  -3.603  28.620  0.00  0.00     0.029 A 
ATOM     20  C   UNL d   1      59.545  -3.078  28.725  0.00  0.00     0.028 A 
ENDBRANCH  15  16
ENDBRANCH  13  15
ENDBRANCH   9  12
BRANCH   2  21
ATOM     21  S   UNL d   1      57.476   0.420  33.276  0.00  0.00    -0.044 SA
BRANCH  21  22
ATOM     22  C   UNL d   1      58.178   0.581  33.668  0.00  0.00     0.107 C 
BRANCH  22  23
ATOM     23  C   UNL d   1      58.177   0.647  34.492  0.00  0.00     0.307 C 
ATOM     24  O   UNL d   1      58.890   0.679  34.915  0.00  0.00    -0.258 OA
BRANCH  23  25
ATOM     25  O   UNL d   1      57.450   0.682  34.892  0.00  0.00    -0.271 OA
BRANCH  25  26
ATOM     26  C   UNL d   1      57.389   0.325  35.635  0.00  0.00     0.126 C 
ATOM     27  C   UNL d   1      56.680   0.376  36.031  0.00  0.00     0.029 C 
ENDBRANCH  25  26
ENDBRANCH  23  25
ENDBRANCH  22  23
ENDBRANCH  21  22
ENDBRANCH   2  21
BRANCH   1  28
ATOM     28  C   UNL d   1      56.302  -0.676  32.943  0.00  0.00     0.085 C 
BRANCH  28  29
ATOM     29  C   UNL d   1      55.540  -0.387  32.818  0.00  0.00     0.019 C 
BRANCH  29  30
ATOM     30  C   UNL d   1      54.996  -0.354  33.422  0.00  0.00     0.002 C 
BRANCH  30  31
ATOM     31  C   UNL d   1      54.559   0.328  33.568  0.00  0.00     0.000 C 
ATOM     32  C   UNL d   1      53.949   0.325  34.091  0.00  0.00     0.000 C 
ENDBRANCH  30  31
ENDBRANCH  29  30
ENDBRANCH  28  29
ENDBRANCH   1  28
TORSDOF 12
ENDMDL
