MODEL 1
REMARK VINA RESULT:      87.0      0.000      0.000
REMARK  7 active torsions:
REMARK  status: ('A' for Active; 'I' for Inactive)
REMARK    1  A    between atoms: C_6  and  C_1 
REMARK    2  A    between atoms: C_9  and  N_3 
REMARK    3  A    between atoms: C_11  and  C_4 
REMARK       I    between atoms: N_7  and  C_6 
REMARK    4  A    between atoms: C_15  and  N_7 
REMARK    5  A    between atoms: C_8  and  C_10 
REMARK    6  A    between atoms: O_18  and  C_8 
REMARK    7  A    between atoms: C_27  and  O_18 
ROOT
ATOM      1  C   UNL d   1     -50.429  27.014  33.781  0.00  0.00     0.096 A 
ATOM      2  N   UNL d   1     -51.725  26.662  33.306  0.00  0.00    -0.165 NA
ATOM      3  N   UNL d   1     -50.766  25.645  33.566  0.00  0.00    -0.228 N 
ATOM      4  C   UNL d   1     -51.186  27.238  33.534  0.00  0.00     0.108 A 
ATOM      5  C   UNL d   1     -50.226  26.216  33.794  0.00  0.00     0.107 A 
ENDROOT
BRANCH   1   6
ATOM      6  C   UNL d   1     -49.887  27.586  34.010  0.00  0.00     0.282 C 
ATOM      7  N   UNL d   1     -49.444  27.495  34.736  0.00  0.00    -0.208 NA
ATOM      8  O   UNL d   1     -49.770  28.250  33.542  0.00  0.00    -0.265 OA
BRANCH   7   9
ATOM      9  C   UNL d   1     -48.887  28.086  34.968  0.00  0.00     0.085 A 
ATOM     10  C   UNL d   1     -48.877  28.380  35.757  0.00  0.00     0.019 A 
ATOM     11  C   UNL d   1     -48.320  28.972  35.988  0.00  0.00     0.007 A 
ATOM     12  C   UNL d   1     -47.764  29.273  35.421  0.00  0.00     0.064 A 
ATOM     13  C   UNL d   1     -47.778  28.976  34.633  0.00  0.00     0.007 A 
ATOM     14  C   UNL d   1     -48.338  28.384  34.407  0.00  0.00     0.019 A 
BRANCH  12  15
ATOM     15  C   UNL d   1     -47.201  29.868  35.648  0.00  0.00     0.300 C 
ATOM     16  O   UNL d   1     -46.856  29.856  36.423  0.00  0.00    -0.259 OA
BRANCH  15  17
ATOM     17  O   UNL d   1     -46.980  30.477  35.099  0.00  0.00    -0.271 OA
BRANCH  17  18
ATOM     18  C   UNL d   1     -47.220  31.275  35.234  0.00  0.00     0.126 C 
ATOM     19  C   UNL d   1     -47.203  31.829  34.605  0.00  0.00     0.029 C 
ENDBRANCH  17  18
ENDBRANCH  15  17
ENDBRANCH  12  15
ENDBRANCH   7   9
ENDBRANCH   1   6
BRANCH   4  20
ATOM     20  C   UNL d   1     -51.394  28.020  33.518  0.00  0.00     0.023 A 
ATOM     21  C   UNL d   1     -50.837  28.595  33.336  0.00  0.00     0.022 A 
ATOM     22  C   UNL d   1     -51.042  29.388  33.318  0.00  0.00     0.099 A 
ATOM     23  N   UNL d   1     -51.821  29.610  33.486  0.00  0.00    -0.242 NA
ATOM     24  C   UNL d   1     -52.383  29.040  33.669  0.00  0.00     0.099 A 
ATOM     25  C   UNL d   1     -52.169  28.245  33.685  0.00  0.00     0.022 A 
ENDBRANCH   4  20
BRANCH   3  26
ATOM     26  C   UNL d   1     -50.757  24.827  33.510  0.00  0.00     0.083 A 
ATOM     27  C   UNL d   1     -50.040  24.433  33.465  0.00  0.00     0.019 A 
ATOM     28  C   UNL d   1     -50.034  23.615  33.409  0.00  0.00     0.002 A 
ATOM     29  C   UNL d   1     -50.742  23.190  33.398  0.00  0.00     0.000 A 
ATOM     30  C   UNL d   1     -51.461  23.592  33.444  0.00  0.00     0.002 A 
ATOM     31  C   UNL d   1     -51.468  24.410  33.499  0.00  0.00     0.019 A 
ENDBRANCH   3  26
TORSDOF 7
ENDMDL
MODEL 2
REMARK VINA RESULT:      87.8      3.049      5.484
REMARK  7 active torsions:
REMARK  status: ('A' for Active; 'I' for Inactive)
REMARK    1  A    between atoms: C_6  and  C_1 
REMARK    2  A    between atoms: C_9  and  N_3 
REMARK    3  A    between atoms: C_11  and  C_4 
REMARK       I    between atoms: N_7  and  C_6 
REMARK    4  A    between atoms: C_15  and  N_7 
REMARK    5  A    between atoms: C_8  and  C_10 
REMARK    6  A    between atoms: O_18  and  C_8 
REMARK    7  A    between atoms: C_27  and  O_18 
ROOT
ATOM      1  C   UNL d   1     -49.718  27.513  35.191  0.00  0.00     0.096 A 
ATOM      2  N   UNL d   1     -49.128  27.805  33.926  0.00  0.00    -0.165 NA
ATOM      3  N   UNL d   1     -48.689  28.496  35.089  0.00  0.00    -0.228 N 
ATOM      4  C   UNL d   1     -49.668  27.379  34.376  0.00  0.00     0.108 A 
ATOM      5  C   UNL d   1     -49.225  28.073  35.540  0.00  0.00     0.107 A 
ENDROOT
BRANCH   1   6
ATOM      6  C   UNL d   1     -50.255  27.090  35.643  0.00  0.00     0.282 C 
ATOM      7  N   UNL d   1     -50.385  27.295  36.463  0.00  0.00    -0.208 NA
ATOM      8  O   UNL d   1     -50.670  26.466  35.308  0.00  0.00    -0.265 OA
BRANCH   7   9
ATOM      9  C   UNL d   1     -50.939  26.856  36.925  0.00  0.00     0.085 A 
ATOM     10  C   UNL d   1     -51.648  26.560  36.581  0.00  0.00     0.019 A 
ATOM     11  C   UNL d   1     -52.201  26.121  37.045  0.00  0.00     0.007 A 
ATOM     12  C   UNL d   1     -52.042  25.978  37.867  0.00  0.00     0.064 A 
ATOM     13  C   UNL d   1     -51.332  26.276  38.208  0.00  0.00     0.007 A 
ATOM     14  C   UNL d   1     -50.782  26.714  37.739  0.00  0.00     0.019 A 
BRANCH  12  15
ATOM     15  C   UNL d   1     -52.596  25.537  38.339  0.00  0.00     0.300 C 
ATOM     16  O   UNL d   1     -53.419  25.745  38.336  0.00  0.00    -0.259 OA
BRANCH  15  17
ATOM     17  O   UNL d   1     -52.327  24.888  38.816  0.00  0.00    -0.271 OA
BRANCH  17  18
ATOM     18  C   UNL d   1     -52.874  24.462  39.297  0.00  0.00     0.126 C 
ATOM     19  C   UNL d   1     -52.792  23.633  39.389  0.00  0.00     0.029 C 
ENDBRANCH  17  18
ENDBRANCH  15  17
ENDBRANCH  12  15
ENDBRANCH   7   9
ENDBRANCH   1   6
BRANCH   4  20
ATOM     20  C   UNL d   1     -50.148  26.830  34.023  0.00  0.00     0.023 A 
ATOM     21  C   UNL d   1     -49.900  26.051  33.945  0.00  0.00     0.022 A 
ATOM     22  C   UNL d   1     -50.382  25.492  33.589  0.00  0.00     0.099 A 
ATOM     23  N   UNL d   1     -51.126  25.717  33.306  0.00  0.00    -0.242 NA
ATOM     24  C   UNL d   1     -51.379  26.494  33.382  0.00  0.00     0.099 A 
ATOM     25  C   UNL d   1     -50.889  27.050  33.740  0.00  0.00     0.022 A 
ENDBRANCH   4  20
BRANCH   3  26
ATOM     26  C   UNL d   1     -48.130  29.076  35.243  0.00  0.00     0.083 A 
ATOM     27  C   UNL d   1     -48.165  29.787  34.836  0.00  0.00     0.019 A 
ATOM     28  C   UNL d   1     -47.605  30.366  34.992  0.00  0.00     0.002 A 
ATOM     29  C   UNL d   1     -47.012  30.237  35.552  0.00  0.00     0.000 A 
ATOM     30  C   UNL d   1     -46.983  29.519  35.959  0.00  0.00     0.002 A 
ATOM     31  C   UNL d   1     -47.542  28.940  35.803  0.00  0.00     0.019 A 
ENDBRANCH   3  26
TORSDOF 7
ENDMDL
MODEL 3
REMARK VINA RESULT:      89.6      1.702      3.290
REMARK  7 active torsions:
REMARK  status: ('A' for Active; 'I' for Inactive)
REMARK    1  A    between atoms: C_6  and  C_1 
REMARK    2  A    between atoms: C_9  and  N_3 
REMARK    3  A    between atoms: C_11  and  C_4 
REMARK       I    between atoms: N_7  and  C_6 
REMARK    4  A    between atoms: C_15  and  N_7 
REMARK    5  A    between atoms: C_8  and  C_10 
REMARK    6  A    between atoms: O_18  and  C_8 
REMARK    7  A    between atoms: C_27  and  O_18 
ROOT
ATOM      1  C   UNL d   1     -50.602  24.994  33.731  0.00  0.00     0.096 A 
ATOM      2  N   UNL d   1     -50.833  23.589  33.662  0.00  0.00    -0.165 NA
ATOM      3  N   UNL d   1     -51.928  24.492  33.576  0.00  0.00    -0.228 N 
ATOM      4  C   UNL d   1     -50.311  24.220  33.736  0.00  0.00     0.108 A 
ATOM      5  C   UNL d   1     -51.412  25.122  33.650  0.00  0.00     0.107 A 
ENDROOT
BRANCH   1   6
ATOM      6  C   UNL d   1     -50.085  25.626  33.805  0.00  0.00     0.282 C 
ATOM      7  N   UNL d   1     -50.226  26.232  34.391  0.00  0.00    -0.208 NA
ATOM      8  O   UNL d   1     -49.429  25.678  33.314  0.00  0.00    -0.265 OA
BRANCH   7   9
ATOM      9  C   UNL d   1     -49.690  26.882  34.464  0.00  0.00     0.085 A 
ATOM     10  C   UNL d   1     -49.283  27.181  33.791  0.00  0.00     0.019 A 
ATOM     11  C   UNL d   1     -48.748  27.831  33.867  0.00  0.00     0.007 A 
ATOM     12  C   UNL d   1     -48.620  28.186  34.627  0.00  0.00     0.064 A 
ATOM     13  C   UNL d   1     -49.029  27.883  35.298  0.00  0.00     0.007 A 
ATOM     14  C   UNL d   1     -49.563  27.233  35.217  0.00  0.00     0.019 A 
BRANCH  12  15
ATOM     15  C   UNL d   1     -48.082  28.840  34.709  0.00  0.00     0.300 C 
ATOM     16  O   UNL d   1     -47.290  28.709  34.986  0.00  0.00    -0.259 OA
BRANCH  15  17
ATOM     17  O   UNL d   1     -48.335  29.626  34.515  0.00  0.00    -0.271 OA
BRANCH  17  18
ATOM     18  C   UNL d   1     -47.999  30.291  34.912  0.00  0.00     0.126 C 
ATOM     19  C   UNL d   1     -48.246  31.066  34.714  0.00  0.00     0.029 C 
ENDBRANCH  17  18
ENDBRANCH  15  17
ENDBRANCH  12  15
ENDBRANCH   7   9
ENDBRANCH   1   6
BRANCH   4  20
ATOM     20  C   UNL d   1     -49.517  24.084  33.815  0.00  0.00     0.023 A 
ATOM     21  C   UNL d   1     -48.981  24.450  33.312  0.00  0.00     0.022 A 
ATOM     22  C   UNL d   1     -48.177  24.315  33.387  0.00  0.00     0.099 A 
ATOM     23  N   UNL d   1     -47.902  23.805  33.977  0.00  0.00    -0.242 NA
ATOM     24  C   UNL d   1     -48.433  23.437  34.483  0.00  0.00     0.099 A 
ATOM     25  C   UNL d   1     -49.240  23.576  34.402  0.00  0.00     0.022 A 
ENDBRANCH   4  20
BRANCH   3  26
ATOM     26  C   UNL d   1     -52.740  24.413  33.489  0.00  0.00     0.083 A 
ATOM     27  C   UNL d   1     -53.204  25.084  33.408  0.00  0.00     0.019 A 
ATOM     28  C   UNL d   1     -54.016  25.002  33.321  0.00  0.00     0.002 A 
ATOM     29  C   UNL d   1     -54.363  24.254  33.314  0.00  0.00     0.000 A 
ATOM     30  C   UNL d   1     -53.891  23.582  33.396  0.00  0.00     0.002 A 
ATOM     31  C   UNL d   1     -53.080  23.662  33.483  0.00  0.00     0.019 A 
ENDBRANCH   3  26
TORSDOF 7
ENDMDL
