MODEL 1
REMARK VINA RESULT:      -6.6      0.000      0.000
REMARK  4 active torsions:
REMARK  status: ('A' for Active; 'I' for Inactive)
REMARK    1  A    between atoms: N_3  and  S_1 
REMARK    2  A    between atoms: C_4  and  S_1 
REMARK    3  A    between atoms: C_2  and  C_5 
REMARK    4  A    between atoms: C_8  and  N_3 
ROOT
ATOM      1  N   UNL d   1      56.893   0.680  31.614  0.00  0.00    -0.158 NA
ENDROOT
BRANCH   1   2
ATOM      2  S   UNL d   1      57.548   0.526  31.139  0.00  0.00     0.285 S 
ATOM      3  O   UNL d   1      58.062   0.673  31.778  0.00  0.00    -0.198 OA
ATOM      4  O   UNL d   1      57.041   0.381  30.507  0.00  0.00    -0.198 OA
BRANCH   2   5
ATOM      5  C   UNL d   1      58.209   0.373  30.670  0.00  0.00     0.105 A 
ATOM      6  C   UNL d   1      58.139  -0.081  29.990  0.00  0.00     0.013 A 
ATOM      7  C   UNL d   1      58.797  -0.228  29.530  0.00  0.00     0.001 A 
ATOM      8  C   UNL d   1      59.539   0.075  29.743  0.00  0.00     0.000 A 
ATOM      9  C   UNL d   1      59.606   0.529  30.425  0.00  0.00     0.001 A 
ATOM     10  C   UNL d   1      60.204  -0.074  29.279  0.00  0.00     0.000 C 
ATOM     11  C   UNL d   1      58.946   0.682  30.894  0.00  0.00     0.013 A 
ENDBRANCH   2   5
ENDBRANCH   1   2
BRANCH   1  12
ATOM     12  C   UNL d   1      56.519   0.143  32.125  0.00  0.00     0.094 A 
ATOM     13  C   UNL d   1      56.045   0.427  32.745  0.00  0.00     0.024 A 
ATOM     14  C   UNL d   1      55.674  -0.112  33.253  0.00  0.00     0.073 A 
ATOM     15  C   UNL d   1      55.772  -0.929  33.148  0.00  0.00     0.004 A 
ATOM     16  C   UNL d   1      56.247  -1.205  32.528  0.00  0.00     0.002 A 
ATOM     17  C   UNL d   1      56.619  -0.667  32.019  0.00  0.00     0.020 A 
BRANCH  14  18
ATOM     18  C   UNL d   1      55.201   0.164  33.870  0.00  0.00     0.419 C 
ATOM     19  F   UNL d   1      54.386   0.245  33.762  0.00  0.00    -0.166 F 
ATOM     20  F   UNL d   1      55.537   0.361  34.594  0.00  0.00    -0.166 F 
ATOM     21  F   UNL d   1      54.677   0.029  33.247  0.00  0.00    -0.166 F 
ENDBRANCH  14  18
ENDBRANCH   1  12
TORSDOF 4
ENDMDL
MODEL 2
REMARK VINA RESULT:      -5.9      2.541      4.451
REMARK  4 active torsions:
REMARK  status: ('A' for Active; 'I' for Inactive)
REMARK    1  A    between atoms: N_3  and  S_1 
REMARK    2  A    between atoms: C_4  and  S_1 
REMARK    3  A    between atoms: C_2  and  C_5 
REMARK    4  A    between atoms: C_8  and  N_3 
ROOT
ATOM      1  N   UNL d   1      58.127   0.663  30.697  0.00  0.00    -0.158 NA
ENDROOT
BRANCH   1   2
ATOM      2  S   UNL d   1      57.569   0.397  31.242  0.00  0.00     0.285 S 
ATOM      3  O   UNL d   1      56.948   0.606  30.727  0.00  0.00    -0.198 OA
ATOM      4  O   UNL d   1      58.183   0.191  31.751  0.00  0.00    -0.198 OA
BRANCH   2   5
ATOM      5  C   UNL d   1      57.005   0.134  31.782  0.00  0.00     0.105 A 
ATOM      6  C   UNL d   1      56.807  -0.662  31.821  0.00  0.00     0.013 A 
ATOM      7  C   UNL d   1      56.248  -0.915  32.359  0.00  0.00     0.001 A 
ATOM      8  C   UNL d   1      55.875  -0.378  32.868  0.00  0.00     0.000 A 
ATOM      9  C   UNL d   1      56.075   0.419  32.827  0.00  0.00     0.001 A 
ATOM     10  C   UNL d   1      55.310  -0.634  33.411  0.00  0.00     0.000 C 
ATOM     11  C   UNL d   1      56.639   0.682  32.286  0.00  0.00     0.013 A 
ENDBRANCH   2   5
ENDBRANCH   1   2
BRANCH   1  12
ATOM     12  C   UNL d   1      58.288   0.325  29.955  0.00  0.00     0.094 A 
ATOM     13  C   UNL d   1      58.733  -0.375  29.910  0.00  0.00     0.024 A 
ATOM     14  C   UNL d   1      58.892  -0.709  29.169  0.00  0.00     0.073 A 
ATOM     15  C   UNL d   1      58.612  -0.351  28.475  0.00  0.00     0.004 A 
ATOM     16  C   UNL d   1      58.169   0.347  28.527  0.00  0.00     0.002 A 
ATOM     17  C   UNL d   1      58.009   0.682  29.268  0.00  0.00     0.020 A 
BRANCH  14  18
ATOM     18  C   UNL d   1      59.334  -1.404  29.118  0.00  0.00     0.419 C 
ATOM     19  F   UNL d   1      58.951  -2.131  29.032  0.00  0.00    -0.166 F 
ATOM     20  F   UNL d   1      60.154  -1.378  29.152  0.00  0.00    -0.166 F 
ATOM     21  F   UNL d   1      58.547  -1.648  29.064  0.00  0.00    -0.166 F 
ENDBRANCH  14  18
ENDBRANCH   1  12
TORSDOF 4
ENDMDL
