MODEL 1
REMARK VINA RESULT:       4.6      0.000      0.000
REMARK  4 active torsions:
REMARK  status: ('A' for Active; 'I' for Inactive)
REMARK    1  A    between atoms: C_2  and  C_1 
REMARK    2  A    between atoms: C_4  and  C_2 
REMARK       I    between atoms: C_3  and  N_6 
REMARK    3  A    between atoms: C_7  and  C_3 
REMARK    4  A    between atoms: N_6  and  C_5 
ROOT
ATOM      1  C   UNL d   1     -42.679-122.158 -50.666  0.00  0.00     0.058 A 
ATOM      2  C   UNL d   1     -42.915-122.380 -49.884  0.00  0.00     0.088 A 
ATOM      3  C   UNL d   1     -43.229-121.916 -51.196  0.00  0.00     0.016 A 
ATOM      4  C   UNL d   1     -43.720-122.333 -49.706  0.00  0.00     0.020 A 
ATOM      5  C   UNL d   1     -44.028-121.878 -50.991  0.00  0.00     0.058 A 
ATOM      6  C   UNL d   1     -44.275-122.083 -50.257  0.00  0.00     0.013 A 
ATOM      7 CL   UNL d   1     -44.589-121.619 -51.569  0.00  0.00    -0.082 Cl
ENDROOT
BRANCH   1   8
ATOM      8  C   UNL d   1     -41.887-122.187 -50.896  0.00  0.00     0.198 C 
ATOM      9  O   UNL d   1     -41.334-121.787 -50.431  0.00  0.00    -0.286 OA
BRANCH   8  10
ATOM     10  C   UNL d   1     -41.642-122.596 -51.565  0.00  0.00     0.050 A 
ATOM     11  C   UNL d   1     -41.369-122.184 -52.226  0.00  0.00     0.061 A 
ATOM     12 CL   UNL d   1     -41.331-121.346 -52.245  0.00  0.00    -0.082 Cl
ATOM     13  C   UNL d   1     -41.123-122.603 -52.900  0.00  0.00     0.011 A 
ATOM     14  C   UNL d   1     -41.150-123.428 -52.911  0.00  0.00     0.001 A 
ATOM     15  C   UNL d   1     -41.427-123.816 -52.237  0.00  0.00     0.000 A 
ATOM     16  C   UNL d   1     -41.673-123.397 -51.563  0.00  0.00     0.004 A 
ENDBRANCH   8  10
ENDBRANCH   1   8
BRANCH   2  17
ATOM     17  N   UNL d   1     -42.353-122.641 -49.301  0.00  0.00    -0.206 NA
ATOM     18  C   UNL d   1     -42.607-122.941 -48.604  0.00  0.00     0.302 C 
ATOM     19  O   UNL d   1     -43.413-123.004 -48.437  0.00  0.00    -0.263 OA
BRANCH  18  20
ATOM     20  C   UNL d   1     -42.050-123.191 -48.047  0.00  0.00     0.158 A 
ATOM     21  O   UNL d   1     -41.529-123.812 -48.035  0.00  0.00    -0.300 OA
ATOM     22  C   UNL d   1     -41.123-123.775 -47.340  0.00  0.00     0.123 A 
ATOM     23  C   UNL d   1     -41.354-123.168 -46.906  0.00  0.00     0.029 A 
ATOM     24  C   UNL d   1     -41.956-122.772 -47.343  0.00  0.00     0.032 A 
ENDBRANCH  18  20
ENDBRANCH   2  17
TORSDOF 4
ENDMDL
MODEL 2
REMARK VINA RESULT:       6.0      1.712      2.589
REMARK  4 active torsions:
REMARK  status: ('A' for Active; 'I' for Inactive)
REMARK    1  A    between atoms: C_2  and  C_1 
REMARK    2  A    between atoms: C_4  and  C_2 
REMARK       I    between atoms: C_3  and  N_6 
REMARK    3  A    between atoms: C_7  and  C_3 
REMARK    4  A    between atoms: N_6  and  C_5 
ROOT
ATOM      1  C   UNL d   1     -41.697-121.641 -52.343  0.00  0.00     0.058 A 
ATOM      2  C   UNL d   1     -41.666-121.586 -51.500  0.00  0.00     0.088 A 
ATOM      3  C   UNL d   1     -41.522-121.000 -52.792  0.00  0.00     0.016 A 
ATOM      4  C   UNL d   1     -41.452-120.857 -51.176  0.00  0.00     0.020 A 
ATOM      5  C   UNL d   1     -41.311-120.283 -52.443  0.00  0.00     0.058 A 
ATOM      6  C   UNL d   1     -41.275-120.207 -51.646  0.00  0.00     0.013 A 
ATOM      7 CL   UNL d   1     -41.130-119.621 -52.938  0.00  0.00    -0.082 Cl
ENDROOT
BRANCH   1   8
ATOM      8  C   UNL d   1     -41.905-122.346 -52.718  0.00  0.00     0.198 C 
ATOM      9  O   UNL d   1     -41.959-123.029 -52.255  0.00  0.00    -0.286 OA
BRANCH   8  10
ATOM     10  C   UNL d   1     -42.056-122.384 -53.525  0.00  0.00     0.050 A 
ATOM     11  C   UNL d   1     -41.679-122.952 -53.990  0.00  0.00     0.061 A 
ATOM     12 CL   UNL d   1     -41.136-123.505 -53.667  0.00  0.00    -0.082 Cl
ATOM     13  C   UNL d   1     -41.835-122.986 -54.805  0.00  0.00     0.011 A 
ATOM     14  C   UNL d   1     -42.364-122.454 -55.151  0.00  0.00     0.001 A 
ATOM     15  C   UNL d   1     -42.727-121.896 -54.663  0.00  0.00     0.000 A 
ATOM     16  C   UNL d   1     -42.571-121.863 -53.847  0.00  0.00     0.004 A 
ENDBRANCH   8  10
ENDBRANCH   1   8
BRANCH   2  17
ATOM     17  N   UNL d   1     -41.847-122.250 -50.999  0.00  0.00    -0.206 NA
ATOM     18  C   UNL d   1     -42.169-122.132 -50.275  0.00  0.00     0.302 C 
ATOM     19  O   UNL d   1     -42.331-121.370 -50.002  0.00  0.00    -0.263 OA
BRANCH  18  20
ATOM     20  C   UNL d   1     -42.340-122.785 -49.799  0.00  0.00     0.158 A 
ATOM     21  O   UNL d   1     -43.030-123.180 -49.638  0.00  0.00    -0.300 OA
ATOM     22  C   UNL d   1     -42.854-123.779 -49.130  0.00  0.00     0.123 A 
ATOM     23  C   UNL d   1     -42.093-123.792 -48.955  0.00  0.00     0.029 A 
ATOM     24  C   UNL d   1     -41.735-123.156 -49.378  0.00  0.00     0.032 A 
ENDBRANCH  18  20
ENDBRANCH   2  17
TORSDOF 4
ENDMDL
