MODEL 1
REMARK VINA RESULT:      -2.3      0.000      0.000
REMARK  6 active torsions:
REMARK  status: ('A' for Active; 'I' for Inactive)
REMARK    1  A    between atoms: C_13  and  S_1 
REMARK    2  A    between atoms: C_2  and  C_6 
REMARK       I    between atoms: N_3  and  C_2 
REMARK    3  A    between atoms: C_4  and  N_3 
REMARK    4  A    between atoms: N_5  and  C_6 
REMARK       I    between atoms: C_7  and  N_5 
REMARK    5  A    between atoms: C_6  and  C_9 
REMARK    6  A    between atoms: C_9  and  C_13 
ROOT
ATOM      1  C   UNL d   1      32.880  20.983 -21.465  0.00  0.00     0.297 C 
ATOM      2  N   UNL d   1      33.240  20.747 -22.166  0.00  0.00    -0.207 NA
ATOM      3  O   UNL d   1      32.513  20.421 -20.980  0.00  0.00    -0.264 OA
ENDROOT
BRANCH   1   4
ATOM      4  C   UNL d   1      32.885  21.784 -21.244  0.00  0.00     0.143 C 
BRANCH   4   5
ATOM      5  N   UNL d   1      33.046  22.365 -21.808  0.00  0.00    -0.203 NA
ATOM      6  C   UNL d   1      32.427  22.731 -22.210  0.00  0.00     0.280 C 
ATOM      7  O   UNL d   1      31.649  22.518 -22.048  0.00  0.00    -0.265 OA
ATOM      8  C   UNL d   1      32.587  23.311 -22.774  0.00  0.00     0.068 C 
ENDBRANCH   4   5
BRANCH   4   9
ATOM      9  C   UNL d   1      32.731  21.999 -20.463  0.00  0.00     0.036 C 
BRANCH   9  10
ATOM     10  C   UNL d   1      33.240  22.512 -20.071  0.00  0.00     0.096 C 
BRANCH  10  11
ATOM     11  S   UNL d   1      33.009  22.854 -19.358  0.00  0.00     0.192 S 
ATOM     12  O   UNL d   1      32.785  22.993 -18.568  0.00  0.00    -0.222 OA
ATOM     13  O   UNL d   1      33.076  22.045 -19.189  0.00  0.00    -0.222 OA
ATOM     14  C   UNL d   1      32.886  23.667 -19.316  0.00  0.00     0.145 C 
ENDBRANCH  10  11
ENDBRANCH   9  10
ENDBRANCH   4   9
ENDBRANCH   1   4
BRANCH   2  15
ATOM     15  C   UNL d   1      33.235  19.949 -22.385  0.00  0.00     0.085 A 
ATOM     16  C   UNL d   1      33.231  19.736 -23.187  0.00  0.00     0.018 A 
ATOM     17  C   UNL d   1      33.225  18.944 -23.412  0.00  0.00     0.002 A 
ATOM     18  C   UNL d   1      33.234  20.330 -23.759  0.00  0.00     0.002 A 
ATOM     19  C   UNL d   1      33.222  18.729 -24.203  0.00  0.00     0.000 A 
ATOM     20  C   UNL d   1      33.223  18.349 -22.822  0.00  0.00     0.000 A 
ATOM     21  C   UNL d   1      33.225  19.324 -24.786  0.00  0.00     0.000 A 
ATOM     22  C   UNL d   1      33.231  20.118 -24.559  0.00  0.00     0.000 A 
ATOM     23  C   UNL d   1      33.226  18.569 -22.031  0.00  0.00     0.002 A 
ATOM     24  C   UNL d   1      33.232  19.357 -21.810  0.00  0.00     0.019 A 
ENDBRANCH   2  15
TORSDOF 6
ENDMDL
