MODEL 1
REMARK VINA RESULT:      59.1      0.000      0.000
REMARK  7 active torsions:
REMARK  status: ('A' for Active; 'I' for Inactive)
REMARK    1  A    between atoms: C_11  and  C_3 
REMARK    2  A    between atoms: C_10  and  C_4 
REMARK    3  A    between atoms: O_16  and  C_10 
REMARK    4  A    between atoms: N_14  and  C_11 
REMARK    5  A    between atoms: C_21  and  N_14 
REMARK    6  A    between atoms: C_23  and  O_16 
REMARK    7  A    between atoms: C_20  and  C_21 
ROOT
ATOM      1  C   UNL d   1      44.650 -15.477  37.081  0.00  0.00     0.035 A 
ATOM      2  C   UNL d   1      44.002 -15.108  36.709  0.00  0.00     0.100 A 
ATOM      3  C   UNL d   1      44.536 -16.201  37.454  0.00  0.00     0.060 A 
ATOM      4  C   UNL d   1      45.318 -15.006  36.991  0.00  0.00     0.088 A 
ATOM      5  O   UNL d   1      44.291 -14.381  36.380  0.00  0.00    -0.307 OA
ATOM      6  C   UNL d   1      45.072 -14.338  36.556  0.00  0.00     0.105 A 
ATOM      7  C   UNL d   1      43.775 -16.553  37.455  0.00  0.00     0.197 A 
ATOM      8  C   UNL d   1      43.238 -15.450  36.703  0.00  0.00     0.026 A 
ATOM      9  C   UNL d   1      43.125 -16.174  37.077  0.00  0.00     0.041 A 
ATOM     10  O   UNL d   1      43.659 -17.294  37.837  0.00  0.00    -0.286 OA
ATOM     11  C   UNL d   1      45.574 -13.700  36.331  0.00  0.00     0.027 C 
ATOM     12  C   UNL d   1      42.609 -15.081  36.337  0.00  0.00     0.002 A 
ATOM     13  C   UNL d   1      42.383 -16.527  37.082  0.00  0.00     0.003 A 
ATOM     14  C   UNL d   1      41.737 -16.148  36.706  0.00  0.00     0.000 A 
ATOM     15  C   UNL d   1      41.850 -15.423  36.332  0.00  0.00     0.000 A 
ENDROOT
BRANCH   3  16
ATOM     16  C   UNL d   1      45.213 -16.559  37.827  0.00  0.00     0.102 C 
BRANCH  16  17
ATOM     17  N   UNL d   1      45.104 -16.937  38.599  0.00  0.00    -0.240 NA
BRANCH  17  18
ATOM     18  C   UNL d   1      45.693 -17.459  38.877  0.00  0.00     0.124 C 
BRANCH  18  19
ATOM     19  C   UNL d   1      45.689 -17.682  39.670  0.00  0.00     0.119 A 
ATOM     20  O   UNL d   1      46.070 -18.396  39.919  0.00  0.00    -0.304 OA
ATOM     21  C   UNL d   1      45.969 -18.460  40.727  0.00  0.00     0.123 A 
ATOM     22  C   UNL d   1      45.547 -17.822  40.974  0.00  0.00     0.029 A 
ATOM     23  C   UNL d   1      45.369 -17.340  40.344  0.00  0.00     0.028 A 
ENDBRANCH  18  19
ENDBRANCH  17  18
ENDBRANCH  16  17
ENDBRANCH   3  16
BRANCH   4  24
ATOM     24  C   UNL d   1      46.098 -15.147  37.270  0.00  0.00     0.302 C 
ATOM     25  O   UNL d   1      46.634 -15.628  36.814  0.00  0.00    -0.259 OA
BRANCH  24  26
ATOM     26  O   UNL d   1      46.363 -14.827  37.985  0.00  0.00    -0.271 OA
BRANCH  26  27
ATOM     27  C   UNL d   1      46.444 -14.012  38.061  0.00  0.00     0.126 C 
ATOM     28  C   UNL d   1      46.634 -13.689  38.779  0.00  0.00     0.029 C 
ENDBRANCH  26  27
ENDBRANCH  24  26
ENDBRANCH   4  24
TORSDOF 7
ENDMDL
MODEL 2
REMARK VINA RESULT:      59.9      3.141      6.607
REMARK  7 active torsions:
REMARK  status: ('A' for Active; 'I' for Inactive)
REMARK    1  A    between atoms: C_11  and  C_3 
REMARK    2  A    between atoms: C_10  and  C_4 
REMARK    3  A    between atoms: O_16  and  C_10 
REMARK    4  A    between atoms: N_14  and  C_11 
REMARK    5  A    between atoms: C_21  and  N_14 
REMARK    6  A    between atoms: C_23  and  O_16 
REMARK    7  A    between atoms: C_20  and  C_21 
ROOT
ATOM      1  C   UNL d   1      46.113 -17.449  43.523  0.00  0.00     0.035 A 
ATOM      2  C   UNL d   1      46.151 -17.883  44.233  0.00  0.00     0.100 A 
ATOM      3  C   UNL d   1      46.239 -17.840  42.809  0.00  0.00     0.060 A 
ATOM      4  C   UNL d   1      45.944 -16.663  43.694  0.00  0.00     0.088 A 
ATOM      5  O   UNL d   1      45.999 -17.334  44.862  0.00  0.00    -0.307 OA
ATOM      6  C   UNL d   1      45.879 -16.617  44.525  0.00  0.00     0.105 A 
ATOM      7  C   UNL d   1      46.403 -18.661  42.809  0.00  0.00     0.197 A 
ATOM      8  C   UNL d   1      46.314 -18.704  44.245  0.00  0.00     0.026 A 
ATOM      9  C   UNL d   1      46.440 -19.094  43.531  0.00  0.00     0.041 A 
ATOM     10  O   UNL d   1      46.533 -19.061  42.079  0.00  0.00    -0.286 OA
ATOM     11  C   UNL d   1      45.709 -15.913  44.955  0.00  0.00     0.027 C 
ATOM     12  C   UNL d   1      46.349 -19.121  44.945  0.00  0.00     0.002 A 
ATOM     13  C   UNL d   1      46.602 -19.899  43.522  0.00  0.00     0.003 A 
ATOM     14  C   UNL d   1      46.638 -20.328  44.241  0.00  0.00     0.000 A 
ATOM     15  C   UNL d   1      46.512 -19.937  44.955  0.00  0.00     0.000 A 
ENDROOT
BRANCH   3  16
ATOM     16  C   UNL d   1      46.195 -17.375  42.097  0.00  0.00     0.102 C 
BRANCH  16  17
ATOM     17  N   UNL d   1      45.868 -17.746  41.386  0.00  0.00    -0.240 NA
BRANCH  17  18
ATOM     18  C   UNL d   1      46.304 -17.708  40.675  0.00  0.00     0.124 C 
BRANCH  18  19
ATOM     19  C   UNL d   1      45.903 -17.607  39.963  0.00  0.00     0.119 A 
ATOM     20  O   UNL d   1      46.059 -16.936  39.470  0.00  0.00    -0.304 OA
ATOM     21  C   UNL d   1      45.579 -16.997  38.813  0.00  0.00     0.123 A 
ATOM     22  C   UNL d   1      45.144 -17.668  38.885  0.00  0.00     0.029 A 
ATOM     23  C   UNL d   1      45.328 -18.051  39.579  0.00  0.00     0.028 A 
ENDBRANCH  18  19
ENDBRANCH  17  18
ENDBRANCH  16  17
ENDBRANCH   3  16
BRANCH   4  24
ATOM     24  C   UNL d   1      45.852 -16.020  43.161  0.00  0.00     0.302 C 
ATOM     25  O   UNL d   1      45.194 -16.004  42.621  0.00  0.00    -0.259 OA
BRANCH  24  26
ATOM     26  O   UNL d   1      46.393 -15.394  43.147  0.00  0.00    -0.271 OA
BRANCH  26  27
ATOM     27  C   UNL d   1      46.129 -14.631  42.994  0.00  0.00     0.126 C 
ATOM     28  C   UNL d   1      45.765 -14.203  43.578  0.00  0.00     0.029 C 
ENDBRANCH  26  27
ENDBRANCH  24  26
ENDBRANCH   4  24
TORSDOF 7
ENDMDL
MODEL 3
REMARK VINA RESULT:      59.9      2.130      3.027
REMARK  7 active torsions:
REMARK  status: ('A' for Active; 'I' for Inactive)
REMARK    1  A    between atoms: C_11  and  C_3 
REMARK    2  A    between atoms: C_10  and  C_4 
REMARK    3  A    between atoms: O_16  and  C_10 
REMARK    4  A    between atoms: N_14  and  C_11 
REMARK    5  A    between atoms: C_21  and  N_14 
REMARK    6  A    between atoms: C_23  and  O_16 
REMARK    7  A    between atoms: C_20  and  C_21 
ROOT
ATOM      1  C   UNL d   1      44.248 -15.300  36.914  0.00  0.00     0.035 A 
ATOM      2  C   UNL d   1      43.830 -15.960  36.626  0.00  0.00     0.100 A 
ATOM      3  C   UNL d   1      43.827 -14.655  37.203  0.00  0.00     0.060 A 
ATOM      4  C   UNL d   1      45.056 -15.440  36.846  0.00  0.00     0.088 A 
ATOM      5  O   UNL d   1      44.409 -16.524  36.371  0.00  0.00    -0.307 OA
ATOM      6  C   UNL d   1      45.130 -16.200  36.509  0.00  0.00     0.105 A 
ATOM      7  C   UNL d   1      42.989 -14.672  37.202  0.00  0.00     0.197 A 
ATOM      8  C   UNL d   1      42.993 -15.988  36.620  0.00  0.00     0.026 A 
ATOM      9  C   UNL d   1      42.572 -15.343  36.909  0.00  0.00     0.041 A 
ATOM     10  O   UNL d   1      42.558 -14.012  37.497  0.00  0.00    -0.286 OA
ATOM     11  C   UNL d   1      45.861 -16.579  36.335  0.00  0.00     0.027 C 
ATOM     12  C   UNL d   1      42.591 -16.639  36.336  0.00  0.00     0.002 A 
ATOM     13  C   UNL d   1      41.750 -15.351  36.912  0.00  0.00     0.003 A 
ATOM     14  C   UNL d   1      41.337 -16.019  36.620  0.00  0.00     0.000 A 
ATOM     15  C   UNL d   1      41.759 -16.665  36.331  0.00  0.00     0.000 A 
ENDROOT
BRANCH   3  16
ATOM     16  C   UNL d   1      44.277 -13.992  37.492  0.00  0.00     0.102 C 
BRANCH  16  17
ATOM     17  N   UNL d   1      44.084 -13.677  38.276  0.00  0.00    -0.240 NA
BRANCH  17  18
ATOM     18  C   UNL d   1      44.367 -12.920  38.485  0.00  0.00     0.124 C 
BRANCH  18  19
ATOM     19  C   UNL d   1      44.285 -12.661  39.262  0.00  0.00     0.119 A 
ATOM     20  O   UNL d   1      44.956 -12.618  39.777  0.00  0.00    -0.304 OA
ATOM     21  C   UNL d   1      44.694 -12.344  40.500  0.00  0.00     0.123 A 
ATOM     22  C   UNL d   1      43.901 -12.221  40.446  0.00  0.00     0.029 A 
ATOM     23  C   UNL d   1      43.637 -12.409  39.701  0.00  0.00     0.028 A 
ENDBRANCH  18  19
ENDBRANCH  17  18
ENDBRANCH  16  17
ENDBRANCH   3  16
BRANCH   4  24
ATOM     24  C   UNL d   1      45.694 -14.938  37.062  0.00  0.00     0.302 C 
ATOM     25  O   UNL d   1      46.148 -15.104  37.763  0.00  0.00    -0.259 OA
BRANCH  24  26
ATOM     26  O   UNL d   1      45.894 -14.278  36.606  0.00  0.00    -0.271 OA
BRANCH  26  27
ATOM     27  C   UNL d   1      46.546 -13.822  36.814  0.00  0.00     0.126 C 
ATOM     28  C   UNL d   1      46.643 -13.578  37.580  0.00  0.00     0.029 C 
ENDBRANCH  26  27
ENDBRANCH  24  26
ENDBRANCH   4  24
TORSDOF 7
ENDMDL
