MODEL 1
REMARK VINA RESULT:      -6.5      0.000      0.000
REMARK  4 active torsions:
REMARK  status: ('A' for Active; 'I' for Inactive)
REMARK       I    between atoms: N_3  and  C_1 
REMARK    1  A    between atoms: C_13  and  C_1 
REMARK    2  A    between atoms: C_2  and  N_5 
REMARK    3  A    between atoms: C_14  and  N_3 
REMARK    4  A    between atoms: C_4  and  C_14 
REMARK       I    between atoms: N_5  and  C_4 
ROOT
ATOM      1  C   UNL d   1     -46.807  14.155  22.758  0.00  0.00     0.299 C 
ATOM      2  N   UNL d   1     -46.655  13.533  22.239  0.00  0.00    -0.207 NA
ATOM      3  O   UNL d   1     -46.380  14.232  23.460  0.00  0.00    -0.263 OA
ENDROOT
BRANCH   1   4
ATOM      4  C   UNL d   1     -47.392  14.707  22.574  0.00  0.00     0.165 C 
BRANCH   4   5
ATOM      5  N   UNL d   1     -48.161  14.603  22.862  0.00  0.00    -0.201 NA
ATOM      6  C   UNL d   1     -48.756  15.118  22.606  0.00  0.00     0.279 C 
ATOM      7  O   UNL d   1     -48.582  15.723  22.073  0.00  0.00    -0.265 OA
BRANCH   6   8
ATOM      8  C   UNL d   1     -49.531  15.022  22.890  0.00  0.00     0.058 A 
ATOM      9  C   UNL d   1     -49.983  14.377  22.647  0.00  0.00     0.005 A 
ATOM     10  C   UNL d   1     -50.744  14.290  22.930  0.00  0.00     0.000 A 
ATOM     11  C   UNL d   1     -51.060  14.843  23.455  0.00  0.00     0.000 A 
ATOM     12  C   UNL d   1     -50.615  15.482  23.698  0.00  0.00     0.000 A 
ATOM     13  C   UNL d   1     -49.847  15.574  23.415  0.00  0.00     0.005 A 
ENDBRANCH   6   8
ENDBRANCH   4   5
ENDBRANCH   1   4
BRANCH   2  14
ATOM     14  C   UNL d   1     -46.068  12.982  22.428  0.00  0.00     0.086 A 
ATOM     15  C   UNL d   1     -46.230  12.373  22.960  0.00  0.00     0.031 A 
ATOM     16  C   UNL d   1     -45.636  11.830  23.140  0.00  0.00     0.060 A 
ATOM     17 CL   UNL d   1     -45.845  11.269  23.655  0.00  0.00    -0.082 Cl
ATOM     18  C   UNL d   1     -44.890  11.889  22.797  0.00  0.00     0.023 A 
ATOM     19  C   UNL d   1     -44.735  12.505  22.262  0.00  0.00     0.060 A 
ATOM     20  C   UNL d   1     -45.324  13.052  22.076  0.00  0.00     0.031 A 
ATOM     21 CL   UNL d   1     -43.987  12.570  21.912  0.00  0.00    -0.082 Cl
ENDBRANCH   2  14
TORSDOF 4
ENDMDL
MODEL 2
REMARK VINA RESULT:      -6.3      2.268      5.021
REMARK  4 active torsions:
REMARK  status: ('A' for Active; 'I' for Inactive)
REMARK       I    between atoms: N_3  and  C_1 
REMARK    1  A    between atoms: C_13  and  C_1 
REMARK    2  A    between atoms: C_2  and  N_5 
REMARK    3  A    between atoms: C_14  and  N_3 
REMARK    4  A    between atoms: C_4  and  C_14 
REMARK       I    between atoms: N_5  and  C_4 
ROOT
ATOM      1  C   UNL d   1     -48.152  13.827  22.811  0.00  0.00     0.299 C 
ATOM      2  N   UNL d   1     -48.461  14.483  22.420  0.00  0.00    -0.207 NA
ATOM      3  O   UNL d   1     -48.649  13.295  23.199  0.00  0.00    -0.263 OA
ENDROOT
BRANCH   1   4
ATOM      4  C   UNL d   1     -47.337  13.702  22.816  0.00  0.00     0.165 C 
BRANCH   4   5
ATOM      5  N   UNL d   1     -47.037  12.947  22.976  0.00  0.00    -0.201 NA
ATOM      6  C   UNL d   1     -46.218  12.845  23.025  0.00  0.00     0.279 C 
ATOM      7  O   UNL d   1     -45.711  13.486  22.915  0.00  0.00    -0.265 OA
BRANCH   6   8
ATOM      8  C   UNL d   1     -45.907  12.091  23.185  0.00  0.00     0.058 A 
ATOM      9  C   UNL d   1     -46.378  11.518  23.544  0.00  0.00     0.005 A 
ATOM     10  C   UNL d   1     -46.065  10.779  23.698  0.00  0.00     0.000 A 
ATOM     11  C   UNL d   1     -45.284  10.607  23.497  0.00  0.00     0.000 A 
ATOM     12  C   UNL d   1     -44.815  11.172  23.142  0.00  0.00     0.000 A 
ATOM     13  C   UNL d   1     -45.126  11.918  22.985  0.00  0.00     0.005 A 
ENDBRANCH   6   8
ENDBRANCH   4   5
ENDBRANCH   1   4
BRANCH   2  14
ATOM     14  C   UNL d   1     -49.280  14.605  22.418  0.00  0.00     0.086 A 
ATOM     15  C   UNL d   1     -49.758  14.183  21.895  0.00  0.00     0.031 A 
ATOM     16  C   UNL d   1     -50.572  14.313  21.902  0.00  0.00     0.060 A 
ATOM     17 CL   UNL d   1     -50.982  13.883  21.381  0.00  0.00    -0.082 Cl
ATOM     18  C   UNL d   1     -50.909  14.856  22.422  0.00  0.00     0.023 A 
ATOM     19  C   UNL d   1     -50.421  15.276  22.946  0.00  0.00     0.060 A 
ATOM     20  C   UNL d   1     -49.605  15.151  22.945  0.00  0.00     0.031 A 
ATOM     21 CL   UNL d   1     -50.753  15.823  23.472  0.00  0.00    -0.082 Cl
ENDBRANCH   2  14
TORSDOF 4
ENDMDL
MODEL 3
REMARK VINA RESULT:      -6.2      1.569      2.062
REMARK  4 active torsions:
REMARK  status: ('A' for Active; 'I' for Inactive)
REMARK       I    between atoms: N_3  and  C_1 
REMARK    1  A    between atoms: C_13  and  C_1 
REMARK    2  A    between atoms: C_2  and  N_5 
REMARK    3  A    between atoms: C_14  and  N_3 
REMARK    4  A    between atoms: C_4  and  C_14 
REMARK       I    between atoms: N_5  and  C_4 
ROOT
ATOM      1  C   UNL d   1     -48.012  12.190  23.081  0.00  0.00     0.299 C 
ATOM      2  N   UNL d   1     -47.386  12.384  23.581  0.00  0.00    -0.207 NA
ATOM      3  O   UNL d   1     -47.873  11.838  22.348  0.00  0.00    -0.263 OA
ENDROOT
BRANCH   1   4
ATOM      4  C   UNL d   1     -48.786  12.349  23.317  0.00  0.00     0.165 C 
BRANCH   4   5
ATOM      5  N   UNL d   1     -49.151  13.054  23.082  0.00  0.00    -0.201 NA
ATOM      6  C   UNL d   1     -49.945  13.176  23.277  0.00  0.00     0.279 C 
ATOM      7  O   UNL d   1     -50.364  12.603  23.698  0.00  0.00    -0.265 OA
BRANCH   6   8
ATOM      8  C   UNL d   1     -50.321  13.880  23.046  0.00  0.00     0.058 A 
ATOM      9  C   UNL d   1     -50.400  14.502  23.581  0.00  0.00     0.005 A 
ATOM     10  C   UNL d   1     -50.770  15.190  23.346  0.00  0.00     0.000 A 
ATOM     11  C   UNL d   1     -51.064  15.265  22.579  0.00  0.00     0.000 A 
ATOM     12  C   UNL d   1     -50.987  14.652  22.047  0.00  0.00     0.000 A 
ATOM     13  C   UNL d   1     -50.615  13.956  22.279  0.00  0.00     0.005 A 
ENDBRANCH   6   8
ENDBRANCH   4   5
ENDBRANCH   1   4
BRANCH   2  14
ATOM     14  C   UNL d   1     -46.611  12.222  23.340  0.00  0.00     0.086 A 
ATOM     15  C   UNL d   1     -46.215  12.750  22.844  0.00  0.00     0.031 A 
ATOM     16  C   UNL d   1     -45.443  12.578  22.612  0.00  0.00     0.060 A 
ATOM     17 CL   UNL d   1     -45.112  13.116  22.138  0.00  0.00    -0.082 Cl
ATOM     18  C   UNL d   1     -45.067  11.891  22.867  0.00  0.00     0.023 A 
ATOM     19  C   UNL d   1     -45.472  11.366  23.366  0.00  0.00     0.060 A 
ATOM     20  C   UNL d   1     -46.245  11.530  23.603  0.00  0.00     0.031 A 
ATOM     21 CL   UNL d   1     -45.100  10.673  23.626  0.00  0.00    -0.082 Cl
ENDBRANCH   2  14
TORSDOF 4
ENDMDL
MODEL 4
REMARK VINA RESULT:      -6.1      8.211      9.290
REMARK  4 active torsions:
REMARK  status: ('A' for Active; 'I' for Inactive)
REMARK       I    between atoms: N_3  and  C_1 
REMARK    1  A    between atoms: C_13  and  C_1 
REMARK    2  A    between atoms: C_2  and  N_5 
REMARK    3  A    between atoms: C_14  and  N_3 
REMARK    4  A    between atoms: C_4  and  C_14 
REMARK       I    between atoms: N_5  and  C_4 
ROOT
ATOM      1  C   UNL d   1     -40.213  14.662  19.462  0.00  0.00     0.299 C 
ATOM      2  N   UNL d   1     -40.480  14.210  18.827  0.00  0.00    -0.207 NA
ATOM      3  O   UNL d   1     -39.827  15.380  19.336  0.00  0.00    -0.263 OA
ENDROOT
BRANCH   1   4
ATOM      4  C   UNL d   1     -40.334  14.393  20.233  0.00  0.00     0.165 C 
BRANCH   4   5
ATOM      5  N   UNL d   1     -39.698  14.364  20.762  0.00  0.00    -0.201 NA
ATOM      6  C   UNL d   1     -39.815  14.024  21.507  0.00  0.00     0.279 C 
ATOM      7  O   UNL d   1     -40.553  13.720  21.715  0.00  0.00    -0.265 OA
BRANCH   6   8
ATOM      8  C   UNL d   1     -39.184  13.989  22.046  0.00  0.00     0.058 A 
ATOM      9  C   UNL d   1     -38.721  13.310  22.098  0.00  0.00     0.005 A 
ATOM     10  C   UNL d   1     -38.102  13.284  22.630  0.00  0.00     0.000 A 
ATOM     11  C   UNL d   1     -37.940  13.932  23.113  0.00  0.00     0.000 A 
ATOM     12  C   UNL d   1     -38.397  14.606  23.065  0.00  0.00     0.000 A 
ATOM     13  C   UNL d   1     -39.022  14.638  22.530  0.00  0.00     0.005 A 
ENDBRANCH   6   8
ENDBRANCH   4   5
ENDBRANCH   1   4
BRANCH   2  14
ATOM     14  C   UNL d   1     -40.357  14.482  18.056  0.00  0.00     0.086 A 
ATOM     15  C   UNL d   1     -40.906  14.988  17.705  0.00  0.00     0.031 A 
ATOM     16  C   UNL d   1     -40.772  15.253  16.936  0.00  0.00     0.060 A 
ATOM     17 CL   UNL d   1     -41.329  15.735  16.649  0.00  0.00    -0.082 Cl
ATOM     18  C   UNL d   1     -40.102  15.020  16.518  0.00  0.00     0.023 A 
ATOM     19  C   UNL d   1     -39.554  14.511  16.878  0.00  0.00     0.060 A 
ATOM     20  C   UNL d   1     -39.680  14.241  17.648  0.00  0.00     0.031 A 
ATOM     21 CL   UNL d   1     -38.878  14.273  16.464  0.00  0.00    -0.082 Cl
ENDBRANCH   2  14
TORSDOF 4
ENDMDL
MODEL 5
REMARK VINA RESULT:      -5.5      8.620      9.198
REMARK  4 active torsions:
REMARK  status: ('A' for Active; 'I' for Inactive)
REMARK       I    between atoms: N_3  and  C_1 
REMARK    1  A    between atoms: C_13  and  C_1 
REMARK    2  A    between atoms: C_2  and  N_5 
REMARK    3  A    between atoms: C_14  and  N_3 
REMARK    4  A    between atoms: C_4  and  C_14 
REMARK       I    between atoms: N_5  and  C_4 
ROOT
ATOM      1  C   UNL d   1     -39.378  14.105  20.323  0.00  0.00     0.299 C 
ATOM      2  N   UNL d   1     -38.657  13.982  20.700  0.00  0.00    -0.207 NA
ATOM      3  O   UNL d   1     -40.019  14.427  20.732  0.00  0.00    -0.263 OA
ENDROOT
BRANCH   1   4
ATOM      4  C   UNL d   1     -39.462  13.906  19.527  0.00  0.00     0.165 C 
BRANCH   4   5
ATOM      5  N   UNL d   1     -39.723  14.475  18.985  0.00  0.00    -0.201 NA
ATOM      6  C   UNL d   1     -39.851  14.249  18.200  0.00  0.00     0.279 C 
ATOM      7  O   UNL d   1     -39.720  13.469  17.964  0.00  0.00    -0.265 OA
BRANCH   6   8
ATOM      8  C   UNL d   1     -40.114  14.812  17.648  0.00  0.00     0.058 A 
ATOM      9  C   UNL d   1     -39.573  15.193  17.157  0.00  0.00     0.005 A 
ATOM     10  C   UNL d   1     -39.838  15.745  16.618  0.00  0.00     0.000 A 
ATOM     11  C   UNL d   1     -40.642  15.922  16.563  0.00  0.00     0.000 A 
ATOM     12  C   UNL d   1     -41.180  15.547  17.048  0.00  0.00     0.000 A 
ATOM     13  C   UNL d   1     -40.917  14.989  17.594  0.00  0.00     0.005 A 
ENDBRANCH   6   8
ENDBRANCH   4   5
ENDBRANCH   1   4
BRANCH   2  14
ATOM     14  C   UNL d   1     -38.577  14.183  21.499  0.00  0.00     0.086 A 
ATOM     15  C   UNL d   1     -38.752  13.628  22.083  0.00  0.00     0.031 A 
ATOM     16  C   UNL d   1     -38.669  13.841  22.876  0.00  0.00     0.060 A 
ATOM     17 CL   UNL d   1     -38.849  13.271  23.393  0.00  0.00    -0.082 Cl
ATOM     18  C   UNL d   1     -38.416  14.595  23.087  0.00  0.00     0.023 A 
ATOM     19  C   UNL d   1     -38.242  15.148  22.493  0.00  0.00     0.060 A 
ATOM     20  C   UNL d   1     -38.323  14.943  21.698  0.00  0.00     0.031 A 
ATOM     21 CL   UNL d   1     -37.987  15.909  22.698  0.00  0.00    -0.082 Cl
ENDBRANCH   2  14
TORSDOF 4
ENDMDL
MODEL 6
REMARK VINA RESULT:      -5.2      8.183      9.372
REMARK  4 active torsions:
REMARK  status: ('A' for Active; 'I' for Inactive)
REMARK       I    between atoms: N_3  and  C_1 
REMARK    1  A    between atoms: C_13  and  C_1 
REMARK    2  A    between atoms: C_2  and  N_5 
REMARK    3  A    between atoms: C_14  and  N_3 
REMARK    4  A    between atoms: C_4  and  C_14 
REMARK       I    between atoms: N_5  and  C_4 
ROOT
ATOM      1  C   UNL d   1     -40.125  14.227  18.517  0.00  0.00     0.299 C 
ATOM      2  N   UNL d   1     -39.374  14.494  18.309  0.00  0.00    -0.207 NA
ATOM      3  O   UNL d   1     -40.520  13.674  18.050  0.00  0.00    -0.263 OA
ENDROOT
BRANCH   1   4
ATOM      4  C   UNL d   1     -40.486  14.517  19.200  0.00  0.00     0.165 C 
BRANCH   4   5
ATOM      5  N   UNL d   1     -40.028  14.675  19.872  0.00  0.00    -0.201 NA
ATOM      6  C   UNL d   1     -40.411  14.823  20.590  0.00  0.00     0.279 C 
ATOM      7  O   UNL d   1     -41.234  14.811  20.633  0.00  0.00    -0.265 OA
BRANCH   6   8
ATOM      8  C   UNL d   1     -39.960  14.983  21.270  0.00  0.00     0.058 A 
ATOM      9  C   UNL d   1     -39.597  14.367  21.680  0.00  0.00     0.005 A 
ATOM     10  C   UNL d   1     -39.157  14.532  22.346  0.00  0.00     0.000 A 
ATOM     11  C   UNL d   1     -39.074  15.310  22.610  0.00  0.00     0.000 A 
ATOM     12  C   UNL d   1     -39.432  15.922  22.207  0.00  0.00     0.000 A 
ATOM     13  C   UNL d   1     -39.878  15.760  21.534  0.00  0.00     0.005 A 
ENDBRANCH   6   8
ENDBRANCH   4   5
ENDBRANCH   1   4
BRANCH   2  14
ATOM     14  C   UNL d   1     -39.015  14.201  17.623  0.00  0.00     0.086 A 
ATOM     15  C   UNL d   1     -38.639  13.467  17.637  0.00  0.00     0.031 A 
ATOM     16  C   UNL d   1     -38.285  13.186  16.947  0.00  0.00     0.060 A 
ATOM     17 CL   UNL d   1     -37.940  12.479  17.015  0.00  0.00    -0.082 Cl
ATOM     18  C   UNL d   1     -38.305  13.627  16.251  0.00  0.00     0.023 A 
ATOM     19  C   UNL d   1     -38.686  14.364  16.246  0.00  0.00     0.060 A 
ATOM     20  C   UNL d   1     -39.042  14.653  16.932  0.00  0.00     0.031 A 
ATOM     21 CL   UNL d   1     -38.709  14.813  15.551  0.00  0.00    -0.082 Cl
ENDBRANCH   2  14
TORSDOF 4
ENDMDL
