MODEL 1
REMARK VINA RESULT:      -7.0      0.000      0.000
REMARK  2 active torsions:
REMARK  status: ('A' for Active; 'I' for Inactive)
REMARK    1  A    between atoms: C_6  and  N_1 
REMARK    2  A    between atoms: C_14  and  C_13 
ROOT
ATOM      1  C   UNL d   1     -48.195  12.841  22.917  0.00  0.00     0.070 A 
ATOM      2  C   UNL d   1     -48.019  13.291  22.249  0.00  0.00     0.018 A 
ATOM      3  C   UNL d   1     -47.603  12.666  23.464  0.00  0.00     0.018 A 
ATOM      4  C   UNL d   1     -47.247  13.568  22.124  0.00  0.00     0.002 A 
ATOM      5  C   UNL d   1     -46.832  12.939  23.346  0.00  0.00     0.002 A 
ATOM      6  C   UNL d   1     -46.655  13.393  22.671  0.00  0.00     0.000 A 
ENDROOT
BRANCH   1   7
ATOM      7  N   UNL d   1     -48.960  12.572  23.030  0.00  0.00    -0.242 N 
ATOM      8  C   UNL d   1     -49.232  11.815  22.846  0.00  0.00     0.267 A 
ATOM      9  C   UNL d   1     -50.032  11.784  23.049  0.00  0.00     0.066 A 
ATOM     10  O   UNL d   1     -48.786  11.205  22.519  0.00  0.00    -0.267 OA
ATOM     11  C   UNL d   1     -50.254  12.511  23.355  0.00  0.00     0.066 A 
ATOM     12  C   UNL d   1     -49.591  13.000  23.344  0.00  0.00     0.267 A 
ATOM     13  O   UNL d   1     -49.567  13.786  23.604  0.00  0.00    -0.267 OA
ENDBRANCH   1   7
BRANCH   6  14
ATOM     14  C   UNL d   1     -45.887  13.664  22.556  0.00  0.00     0.000 C 
ATOM     15  C   UNL d   1     -45.343  13.183  22.160  0.00  0.00     0.000 C 
ENDBRANCH   6  14
TORSDOF 2
ENDMDL
MODEL 2
REMARK VINA RESULT:      -6.8      1.162      1.388
REMARK  2 active torsions:
REMARK  status: ('A' for Active; 'I' for Inactive)
REMARK    1  A    between atoms: C_6  and  N_1 
REMARK    2  A    between atoms: C_14  and  C_13 
ROOT
ATOM      1  C   UNL d   1     -48.758  13.531  22.559  0.00  0.00     0.070 A 
ATOM      2  C   UNL d   1     -48.294  12.899  22.814  0.00  0.00     0.018 A 
ATOM      3  C   UNL d   1     -48.422  14.279  22.468  0.00  0.00     0.018 A 
ATOM      4  C   UNL d   1     -47.489  13.012  22.979  0.00  0.00     0.002 A 
ATOM      5  C   UNL d   1     -47.621  14.398  22.631  0.00  0.00     0.002 A 
ATOM      6  C   UNL d   1     -47.153  13.760  22.888  0.00  0.00     0.000 A 
ENDROOT
BRANCH   1   7
ATOM      7  N   UNL d   1     -49.552  13.407  22.399  0.00  0.00    -0.242 N 
ATOM      8  C   UNL d   1     -49.858  13.139  21.682  0.00  0.00     0.267 A 
ATOM      9  C   UNL d   1     -50.678  13.095  21.764  0.00  0.00     0.066 A 
ATOM     10  O   UNL d   1     -49.423  12.949  21.009  0.00  0.00    -0.267 OA
ATOM     11  C   UNL d   1     -50.879  13.334  22.521  0.00  0.00     0.066 A 
ATOM     12  C   UNL d   1     -50.183  13.527  22.916  0.00  0.00     0.267 A 
ATOM     13  O   UNL d   1     -50.129  13.796  23.698  0.00  0.00    -0.267 OA
ENDBRANCH   1   7
BRANCH   6  14
ATOM     14  C   UNL d   1     -46.356  13.882  23.050  0.00  0.00     0.000 C 
ATOM     15  C   UNL d   1     -45.787  13.594  22.522  0.00  0.00     0.000 C 
ENDBRANCH   6  14
TORSDOF 2
ENDMDL
