MODEL 1
REMARK VINA RESULT:      -6.7      0.000      0.000
REMARK  0 active torsions:
REMARK  status: ('A' for Active; 'I' for Inactive)
ROOT
ATOM      1  C   UNL d   1      56.876  -0.924  31.663  0.00  0.00     0.180 A 
ATOM      2  C   UNL d   1      56.800  -0.107  31.792  0.00  0.00     0.118 A 
ATOM      3  N   UNL d   1      57.206   0.428  31.323  0.00  0.00    -0.241 NA
ATOM      4  N   UNL d   1      56.405  -1.316  32.216  0.00  0.00    -0.225 NA
ATOM      5  N   UNL d   1      57.366  -1.193  31.058  0.00  0.00    -0.224 NA
ATOM      6  C   UNL d   1      56.279  -0.002  32.427  0.00  0.00     0.038 A 
ATOM      7  C   UNL d   1      56.034  -0.746  32.691  0.00  0.00     0.085 A 
ATOM      8  C   UNL d   1      57.694   0.151  30.720  0.00  0.00     0.099 A 
ATOM      9  C   UNL d   1      57.772  -0.659  30.589  0.00  0.00     0.101 A 
ATOM     10  C   UNL d   1      55.997   0.682  32.799  0.00  0.00     0.003 A 
ATOM     11  C   UNL d   1      55.504  -0.814  33.330  0.00  0.00     0.019 A 
ATOM     12  C   UNL d   1      58.105   0.682  30.246  0.00  0.00     0.021 A 
ATOM     13  C   UNL d   1      58.259  -0.930  29.988  0.00  0.00     0.021 A 
ATOM     14  C   UNL d   1      55.469   0.613  33.435  0.00  0.00     0.000 A 
ATOM     15  C   UNL d   1      55.224  -0.131  33.699  0.00  0.00     0.002 A 
ATOM     16  C   UNL d   1      58.591   0.410  29.644  0.00  0.00     0.002 A 
ATOM     17  C   UNL d   1      58.670  -0.399  29.514  0.00  0.00     0.002 A 
ENDROOT
TORSDOF 0
ENDMDL
MODEL 2
REMARK VINA RESULT:      -6.4      0.311      3.403
REMARK  0 active torsions:
REMARK  status: ('A' for Active; 'I' for Inactive)
ROOT
ATOM      1  C   UNL d   1      57.007  -0.928  31.473  0.00  0.00     0.180 A 
ATOM      2  C   UNL d   1      57.156  -0.113  31.412  0.00  0.00     0.118 A 
ATOM      3  N   UNL d   1      56.795   0.415  31.924  0.00  0.00    -0.241 NA
ATOM      4  N   UNL d   1      57.445  -1.313  30.889  0.00  0.00    -0.225 NA
ATOM      5  N   UNL d   1      56.492  -1.202  32.055  0.00  0.00    -0.224 NA
ATOM      6  C   UNL d   1      57.687  -0.003  30.787  0.00  0.00     0.038 A 
ATOM      7  C   UNL d   1      57.868  -0.742  30.463  0.00  0.00     0.085 A 
ATOM      8  C   UNL d   1      56.281   0.134  32.502  0.00  0.00     0.099 A 
ATOM      9  C   UNL d   1      56.131  -0.674  32.566  0.00  0.00     0.101 A 
ATOM     10  C   UNL d   1      58.031   0.682  30.472  0.00  0.00     0.003 A 
ATOM     11  C   UNL d   1      58.394  -0.803  29.820  0.00  0.00     0.019 A 
ATOM     12  C   UNL d   1      55.916   0.658  33.019  0.00  0.00     0.021 A 
ATOM     13  C   UNL d   1      55.619  -0.950  33.144  0.00  0.00     0.021 A 
ATOM     14  C   UNL d   1      58.554   0.618  29.832  0.00  0.00     0.000 A 
ATOM     15  C   UNL d   1      58.735  -0.120  29.508  0.00  0.00     0.002 A 
ATOM     16  C   UNL d   1      55.403   0.382  33.597  0.00  0.00     0.002 A 
ATOM     17  C   UNL d   1      55.253  -0.426  33.660  0.00  0.00     0.002 A 
ENDROOT
TORSDOF 0
ENDMDL
MODEL 3
REMARK VINA RESULT:      -6.3      0.593      1.365
REMARK  0 active torsions:
REMARK  status: ('A' for Active; 'I' for Inactive)
ROOT
ATOM      1  C   UNL d   1      57.119   0.272  31.407  0.00  0.00     0.180 A 
ATOM      2  C   UNL d   1      56.995  -0.541  31.523  0.00  0.00     0.118 A 
ATOM      3  N   UNL d   1      57.364  -1.091  31.042  0.00  0.00    -0.241 NA
ATOM      4  N   UNL d   1      56.678   0.682  31.971  0.00  0.00    -0.225 NA
ATOM      5  N   UNL d   1      57.619   0.522  30.801  0.00  0.00    -0.224 NA
ATOM      6  C   UNL d   1      56.475  -0.625  32.162  0.00  0.00     0.038 A 
ATOM      7  C   UNL d   1      56.277   0.128  32.440  0.00  0.00     0.085 A 
ATOM      8  C   UNL d   1      57.862  -0.834  30.439  0.00  0.00     0.099 A 
ATOM      9  C   UNL d   1      57.988  -0.028  30.320  0.00  0.00     0.101 A 
ATOM     10  C   UNL d   1      56.155  -1.297  32.526  0.00  0.00     0.003 A 
ATOM     11  C   UNL d   1      55.758   0.216  33.086  0.00  0.00     0.019 A 
ATOM     12  C   UNL d   1      58.236  -1.380  29.952  0.00  0.00     0.021 A 
ATOM     13  C   UNL d   1      58.484   0.224  29.719  0.00  0.00     0.021 A 
ATOM     14  C   UNL d   1      55.639  -1.207  33.168  0.00  0.00     0.000 A 
ATOM     15  C   UNL d   1      55.441  -0.455  33.446  0.00  0.00     0.002 A 
ATOM     16  C   UNL d   1      58.733  -1.128  29.350  0.00  0.00     0.002 A 
ATOM     17  C   UNL d   1      58.858  -0.323  29.232  0.00  0.00     0.002 A 
ENDROOT
TORSDOF 0
ENDMDL
MODEL 4
REMARK VINA RESULT:      -6.2      0.561      3.689
REMARK  0 active torsions:
REMARK  status: ('A' for Active; 'I' for Inactive)
ROOT
ATOM      1  C   UNL d   1      57.394   0.311  31.099  0.00  0.00     0.180 A 
ATOM      2  C   UNL d   1      57.441  -0.510  30.978  0.00  0.00     0.118 A 
ATOM      3  N   UNL d   1      57.016  -1.025  31.451  0.00  0.00    -0.241 NA
ATOM      4  N   UNL d   1      57.879   0.681  30.542  0.00  0.00    -0.225 NA
ATOM      5  N   UNL d   1      56.914   0.603  31.701  0.00  0.00    -0.224 NA
ATOM      6  C   UNL d   1      57.958  -0.639  30.344  0.00  0.00     0.038 A 
ATOM      7  C   UNL d   1      58.229   0.094  30.073  0.00  0.00     0.085 A 
ATOM      8  C   UNL d   1      56.539  -0.726  32.051  0.00  0.00     0.099 A 
ATOM      9  C   UNL d   1      56.489   0.088  32.175  0.00  0.00     0.101 A 
ATOM     10  C   UNL d   1      58.216  -1.336  29.978  0.00  0.00     0.003 A 
ATOM     11  C   UNL d   1      58.761   0.137  29.434  0.00  0.00     0.019 A 
ATOM     12  C   UNL d   1      56.110  -1.237  32.530  0.00  0.00     0.021 A 
ATOM     13  C   UNL d   1      56.013   0.382  32.773  0.00  0.00     0.021 A 
ATOM     14  C   UNL d   1      58.746  -1.291  29.342  0.00  0.00     0.000 A 
ATOM     15  C   UNL d   1      59.017  -0.559  29.071  0.00  0.00     0.002 A 
ATOM     16  C   UNL d   1      55.633  -0.943  33.129  0.00  0.00     0.002 A 
ATOM     17  C   UNL d   1      55.583  -0.130  33.252  0.00  0.00     0.002 A 
ENDROOT
TORSDOF 0
ENDMDL
MODEL 5
REMARK VINA RESULT:      -4.7      1.331      1.853
REMARK  0 active torsions:
REMARK  status: ('A' for Active; 'I' for Inactive)
ROOT
ATOM      1  C   UNL d   1      57.043   0.673  33.365  0.00  0.00     0.180 A 
ATOM      2  C   UNL d   1      56.327   0.671  32.943  0.00  0.00     0.118 A 
ATOM      3  N   UNL d   1      56.327   0.666  32.125  0.00  0.00    -0.241 NA
ATOM      4  N   UNL d   1      56.866   0.678  34.171  0.00  0.00    -0.225 NA
ATOM      5  N   UNL d   1      57.755   0.671  32.951  0.00  0.00    -0.224 NA
ATOM      6  C   UNL d   1      55.712   0.674  33.497  0.00  0.00     0.038 A 
ATOM      7  C   UNL d   1      56.041   0.678  34.256  0.00  0.00     0.085 A 
ATOM      8  C   UNL d   1      57.042   0.664  31.718  0.00  0.00     0.099 A 
ATOM      9  C   UNL d   1      57.755   0.667  32.132  0.00  0.00     0.101 A 
ATOM     10  C   UNL d   1      54.889   0.674  33.404  0.00  0.00     0.003 A 
ATOM     11  C   UNL d   1      55.551   0.682  34.929  0.00  0.00     0.019 A 
ATOM     12  C   UNL d   1      57.049   0.660  30.896  0.00  0.00     0.021 A 
ATOM     13  C   UNL d   1      58.465   0.664  31.723  0.00  0.00     0.021 A 
ATOM     14  C   UNL d   1      54.402   0.677  34.076  0.00  0.00     0.000 A 
ATOM     15  C   UNL d   1      54.731   0.681  34.834  0.00  0.00     0.002 A 
ATOM     16  C   UNL d   1      57.760   0.657  30.487  0.00  0.00     0.002 A 
ATOM     17  C   UNL d   1      58.472   0.660  30.902  0.00  0.00     0.002 A 
ENDROOT
TORSDOF 0
ENDMDL
MODEL 6
REMARK VINA RESULT:      -4.3      1.461      3.943
REMARK  0 active torsions:
REMARK  status: ('A' for Active; 'I' for Inactive)
ROOT
ATOM      1  C   UNL d   1      56.940   0.617  33.377  0.00  0.00     0.180 A 
ATOM      2  C   UNL d   1      56.432   0.650  32.720  0.00  0.00     0.118 A 
ATOM      3  N   UNL d   1      55.620   0.671  32.824  0.00  0.00    -0.241 NA
ATOM      4  N   UNL d   1      57.717   0.602  33.099  0.00  0.00    -0.225 NA
ATOM      5  N   UNL d   1      56.619   0.607  34.136  0.00  0.00    -0.224 NA
ATOM      6  C   UNL d   1      56.903   0.653  32.040  0.00  0.00     0.038 A 
ATOM      7  C   UNL d   1      57.697   0.624  32.271  0.00  0.00     0.085 A 
ATOM      8  C   UNL d   1      55.306   0.661  33.585  0.00  0.00     0.099 A 
ATOM      9  C   UNL d   1      55.807   0.629  34.239  0.00  0.00     0.101 A 
ATOM     10  C   UNL d   1      56.708   0.680  31.236  0.00  0.00     0.003 A 
ATOM     11  C   UNL d   1      58.303   0.621  31.699  0.00  0.00     0.019 A 
ATOM     12  C   UNL d   1      54.492   0.682  33.696  0.00  0.00     0.021 A 
ATOM     13  C   UNL d   1      55.491   0.618  34.995  0.00  0.00     0.021 A 
ATOM     14  C   UNL d   1      57.312   0.677  30.668  0.00  0.00     0.000 A 
ATOM     15  C   UNL d   1      58.105   0.648  30.898  0.00  0.00     0.002 A 
ATOM     16  C   UNL d   1      54.176   0.672  34.452  0.00  0.00     0.002 A 
ATOM     17  C   UNL d   1      54.677   0.640  35.106  0.00  0.00     0.002 A 
ENDROOT
TORSDOF 0
ENDMDL
