MODEL 1
REMARK VINA RESULT:      50.0      0.000      0.000
REMARK  4 active torsions:
REMARK  status: ('A' for Active; 'I' for Inactive)
REMARK    1  A    between atoms: C_4  and  S_1 
REMARK    2  A    between atoms: N_8  and  S_1 
REMARK    3  A    between atoms: C_5  and  C_11 
REMARK    4  A    between atoms: C_16  and  N_8 
ROOT
ATOM      1  C   UNL d   1     -55.270-100.390 -43.946  0.00  0.00     0.021 A 
ATOM      2  C   UNL d   1     -56.053 -99.339 -44.538  0.00  0.00     0.094 A 
ATOM      3  C   UNL d   1     -55.916 -99.858 -43.915  0.00  0.00     0.021 A 
ATOM      4  C   UNL d   1     -54.775-100.391 -44.600  0.00  0.00     0.002 A 
ATOM      5  C   UNL d   1     -54.905 -99.870 -45.235  0.00  0.00     0.002 A 
ATOM      6  C   UNL d   1     -55.551 -99.338 -45.203  0.00  0.00     0.020 A 
ENDROOT
BRANCH   2   7
ATOM      7  N   UNL d   1     -56.684 -98.821 -44.507  0.00  0.00    -0.158 NA
BRANCH   7   8
ATOM      8  S   UNL d   1     -57.158 -98.788 -43.836  0.00  0.00     0.287 S 
ATOM      9  O   UNL d   1     -56.495 -98.796 -43.361  0.00  0.00    -0.198 OA
ATOM     10  O   UNL d   1     -57.626 -98.756 -43.152  0.00  0.00    -0.198 OA
BRANCH   8  11
ATOM     11  C   UNL d   1     -57.834 -98.780 -44.307  0.00  0.00     0.133 A 
ATOM     12  C   UNL d   1     -58.578 -98.788 -43.954  0.00  0.00     0.155 A 
ATOM     13  C   UNL d   1     -59.255 -98.780 -44.417  0.00  0.00     0.060 A 
ATOM     14  F   UNL d   1     -58.645 -98.805 -43.132  0.00  0.00    -0.203 F 
ATOM     15  C   UNL d   1     -59.191 -98.763 -45.247  0.00  0.00     0.142 A 
ATOM     16  C   UNL d   1     -58.444 -98.755 -45.597  0.00  0.00     0.030 A 
ATOM     17  F   UNL d   1     -59.872 -98.755 -45.715  0.00  0.00    -0.204 F 
ATOM     18  C   UNL d   1     -57.771 -98.763 -45.134  0.00  0.00     0.018 A 
ENDBRANCH   8  11
ENDBRANCH   7   8
ENDBRANCH   2   7
BRANCH   1  19
ATOM     19  C   UNL d   1     -55.133-100.909 -43.323  0.00  0.00     0.101 A 
ATOM     20  N   UNL d   1     -54.994-100.695 -42.541  0.00  0.00    -0.221 NA
ATOM     21  C   UNL d   1     -54.884-101.388 -42.096  0.00  0.00     0.179 A 
ATOM     22  S   UNL d   1     -54.733-101.687 -41.354  0.00  0.00    -0.048 SA
ATOM     23  N   UNL d   1     -54.960-102.032 -42.625  0.00  0.00    -0.282 N 
ATOM     24  C   UNL d   1     -54.711-102.511 -41.402  0.00  0.00     0.057 A 
ATOM     25  C   UNL d   1     -54.851-102.728 -42.188  0.00  0.00     0.089 A 
ATOM     26  C   UNL d   1     -55.113-101.723 -43.378  0.00  0.00     0.101 A 
ENDBRANCH   1  19
TORSDOF 4
ENDMDL
