MODEL 1
REMARK VINA RESULT:       3.7      0.000      0.000
REMARK  7 active torsions:
REMARK  status: ('A' for Active; 'I' for Inactive)
REMARK    1  A    between atoms: N_9  and  C_2 
REMARK    2  A    between atoms: C_8  and  C_14 
REMARK    3  A    between atoms: C_15  and  N_9 
REMARK    4  A    between atoms: C_14  and  C_16 
REMARK    5  A    between atoms: C_17  and  C_15 
REMARK    6  A    between atoms: C_16  and  C_18 
REMARK    7  A    between atoms: C_18  and  C_17 
ROOT
ATOM      1  N   UNL d   1      46.454 -18.932  44.390  0.00  0.00    -0.198 NA
ATOM      2  C   UNL d   1      46.515 -18.443  43.725  0.00  0.00     0.166 A 
ATOM      3  C   UNL d   1      46.428 -19.751  44.297  0.00  0.00     0.222 A 
ATOM      4  C   UNL d   1      46.550 -18.774  42.971  0.00  0.00     0.054 A 
ATOM      5  N   UNL d   1      46.463 -20.081  43.540  0.00  0.00    -0.217 NA
ATOM      6  C   UNL d   1      46.525 -19.594  42.878  0.00  0.00     0.087 A 
ATOM      7  S   UNL d   1      46.367 -20.245  44.955  0.00  0.00    -0.037 SA
ATOM      8  C   UNL d   1      46.611 -18.286  42.314  0.00  0.00     0.005 A 
ATOM      9  C   UNL d   1      46.560 -19.925  42.129  0.00  0.00     0.019 A 
ATOM     10  C   UNL d   1      46.647 -18.617  41.555  0.00  0.00     0.000 A 
ATOM     11  C   UNL d   1      46.621 -19.436  41.462  0.00  0.00     0.002 A 
ENDROOT
BRANCH   2  12
ATOM     12  N   UNL d   1      46.541 -17.625  43.818  0.00  0.00    -0.225 NA
BRANCH  12  13
ATOM     13  C   UNL d   1      45.869 -17.226  44.078  0.00  0.00     0.101 C 
BRANCH  13  14
ATOM     14  C   UNL d   1      45.944 -16.639  44.653  0.00  0.00     0.021 C 
BRANCH  14  15
ATOM     15  C   UNL d   1      45.408 -16.008  44.669  0.00  0.00     0.002 C 
BRANCH  15  16
ATOM     16  C   UNL d   1      45.686 -15.236  44.671  0.00  0.00     0.006 C 
BRANCH  16  17
ATOM     17  C   UNL d   1      45.185 -14.619  44.445  0.00  0.00     0.070 C 
BRANCH  17  18
ATOM     18  C   UNL d   1      45.476 -13.848  44.407  0.00  0.00     0.211 C 
ATOM     19  O   UNL d   1      46.038 -13.589  44.951  0.00  0.00    -0.644 OA
ATOM     20  O   UNL d   1      45.200 -13.332  43.818  0.00  0.00    -0.644 OA
ENDBRANCH  17  18
ENDBRANCH  16  17
ENDBRANCH  15  16
ENDBRANCH  14  15
ENDBRANCH  13  14
ENDBRANCH  12  13
ENDBRANCH   2  12
TORSDOF 7
ENDMDL
