MODEL 1
REMARK VINA RESULT:      -4.9      0.000      0.000
REMARK  5 active torsions:
REMARK  status: ('A' for Active; 'I' for Inactive)
REMARK    1  A    between atoms: S_2  and  N_1 
REMARK    2  A    between atoms: C_10  and  S_2 
REMARK    3  A    between atoms: N_7  and  C_3 
REMARK    4  A    between atoms: C_12  and  C_6 
REMARK    5  A    between atoms: C_13  and  N_7 
ROOT
ATOM      1  N   UNL d   1     -39.608  14.401  19.144  0.00  0.00    -0.176 N 
ATOM      2  C   UNL d   1     -39.301  13.909  18.562  0.00  0.00     0.191 A 
ATOM      3  C   UNL d   1     -40.166  14.896  18.812  0.00  0.00     0.281 A 
ATOM      4  S   UNL d   1     -39.683  14.110  17.858  0.00  0.00    -0.044 SA
ATOM      5  C   UNL d   1     -40.220  14.730  18.039  0.00  0.00     0.089 A 
ATOM      6  O   UNL d   1     -40.626  15.494  19.194  0.00  0.00    -0.265 OA
ENDROOT
BRANCH   1   7
ATOM      7  S   UNL d   1     -39.395  14.405  19.937  0.00  0.00     0.275 S 
ATOM      8  O   UNL d   1     -38.702  14.845  19.789  0.00  0.00    -0.199 OA
ATOM      9  O   UNL d   1     -40.077  13.966  20.131  0.00  0.00    -0.199 OA
BRANCH   7  10
ATOM     10  C   UNL d   1     -39.190  14.406  20.728  0.00  0.00     0.104 A 
ATOM     11  C   UNL d   1     -38.561  14.881  20.992  0.00  0.00     0.013 A 
ATOM     12  C   UNL d   1     -38.333  14.898  21.792  0.00  0.00     0.001 A 
ATOM     13  C   UNL d   1     -38.754  14.417  22.358  0.00  0.00     0.000 A 
ATOM     14  C   UNL d   1     -39.358  13.970  22.067  0.00  0.00     0.001 A 
ATOM     15  C   UNL d   1     -39.579  13.954  21.290  0.00  0.00     0.013 A 
ENDBRANCH   7  10
ENDBRANCH   1   7
BRANCH   2  16
ATOM     16  N   UNL d   1     -38.734  13.360  18.743  0.00  0.00    -0.222 NA
BRANCH  16  17
ATOM     17  C   UNL d   1     -38.470  12.833  18.156  0.00  0.00     0.084 A 
ATOM     18  C   UNL d   1     -38.206  13.126  17.436  0.00  0.00     0.019 A 
ATOM     19  C   UNL d   1     -37.941  12.614  16.844  0.00  0.00     0.002 A 
ATOM     20  C   UNL d   1     -37.947  11.783  16.993  0.00  0.00     0.000 A 
ATOM     21  C   UNL d   1     -38.212  11.491  17.714  0.00  0.00     0.002 A 
ATOM     22  C   UNL d   1     -38.473  12.023  18.295  0.00  0.00     0.019 A 
ENDBRANCH  16  17
ENDBRANCH   2  16
BRANCH   5  23
ATOM     23  C   UNL d   1     -40.731  15.125  17.535  0.00  0.00     0.011 A 
ATOM     24  C   UNL d   1     -41.523  15.149  17.698  0.00  0.00     0.001 A 
ATOM     25  C   UNL d   1     -42.043  15.546  17.193  0.00  0.00     0.000 A 
ATOM     26  C   UNL d   1     -41.769  15.922  16.519  0.00  0.00     0.000 A 
ATOM     27  C   UNL d   1     -40.953  15.895  16.353  0.00  0.00     0.000 A 
ATOM     28  C   UNL d   1     -40.428  15.498  16.857  0.00  0.00     0.001 A 
ENDBRANCH   5  23
TORSDOF 5
ENDMDL
MODEL 2
REMARK VINA RESULT:      -4.9      1.828      3.230
REMARK  5 active torsions:
REMARK  status: ('A' for Active; 'I' for Inactive)
REMARK    1  A    between atoms: S_2  and  N_1 
REMARK    2  A    between atoms: C_10  and  S_2 
REMARK    3  A    between atoms: N_7  and  C_3 
REMARK    4  A    between atoms: C_12  and  C_6 
REMARK    5  A    between atoms: C_13  and  N_7 
ROOT
ATOM      1  N   UNL d   1     -39.965  14.709  20.629  0.00  0.00    -0.176 N 
ATOM      2  C   UNL d   1     -40.720  14.385  20.625  0.00  0.00     0.191 A 
ATOM      3  C   UNL d   1     -39.724  14.842  19.860  0.00  0.00     0.281 A 
ATOM      4  S   UNL d   1     -40.944  14.319  19.833  0.00  0.00    -0.044 SA
ATOM      5  C   UNL d   1     -40.305  14.611  19.373  0.00  0.00     0.089 A 
ATOM      6  O   UNL d   1     -38.992  15.167  19.591  0.00  0.00    -0.265 OA
ENDROOT
BRANCH   1   7
ATOM      7  S   UNL d   1     -39.513  14.878  21.293  0.00  0.00     0.275 S 
ATOM      8  O   UNL d   1     -39.144  14.130  21.280  0.00  0.00    -0.199 OA
ATOM      9  O   UNL d   1     -39.856  15.636  21.345  0.00  0.00    -0.199 OA
BRANCH   7  10
ATOM     10  C   UNL d   1     -39.066  15.053  21.955  0.00  0.00     0.104 A 
ATOM     11  C   UNL d   1     -38.534  14.489  22.255  0.00  0.00     0.013 A 
ATOM     12  C   UNL d   1     -38.069  14.644  22.927  0.00  0.00     0.001 A 
ATOM     13  C   UNL d   1     -38.137  15.400  23.320  0.00  0.00     0.000 A 
ATOM     14  C   UNL d   1     -38.662  15.921  23.001  0.00  0.00     0.001 A 
ATOM     15  C   UNL d   1     -39.114  15.770  22.349  0.00  0.00     0.013 A 
ENDBRANCH   7  10
ENDBRANCH   1   7
BRANCH   2  16
ATOM     16  N   UNL d   1     -41.092  14.198  21.320  0.00  0.00    -0.222 NA
BRANCH  16  17
ATOM     17  C   UNL d   1     -41.815  13.787  21.301  0.00  0.00     0.084 A 
ATOM     18  C   UNL d   1     -41.828  12.981  21.458  0.00  0.00     0.019 A 
ATOM     19  C   UNL d   1     -42.538  12.561  21.443  0.00  0.00     0.002 A 
ATOM     20  C   UNL d   1     -43.252  12.974  21.262  0.00  0.00     0.000 A 
ATOM     21  C   UNL d   1     -43.237  13.780  21.105  0.00  0.00     0.002 A 
ATOM     22  C   UNL d   1     -42.513  14.184  21.126  0.00  0.00     0.019 A 
ENDBRANCH  16  17
ENDBRANCH   2  16
BRANCH   5  23
ATOM     23  C   UNL d   1     -40.249  14.666  18.557  0.00  0.00     0.011 A 
ATOM     24  C   UNL d   1     -39.875  14.084  18.136  0.00  0.00     0.001 A 
ATOM     25  C   UNL d   1     -39.815  14.135  17.313  0.00  0.00     0.000 A 
ATOM     26  C   UNL d   1     -40.131  14.772  16.907  0.00  0.00     0.000 A 
ATOM     27  C   UNL d   1     -40.514  15.370  17.344  0.00  0.00     0.000 A 
ATOM     28  C   UNL d   1     -40.577  15.323  18.169  0.00  0.00     0.001 A 
ENDBRANCH   5  23
TORSDOF 5
ENDMDL
MODEL 3
REMARK VINA RESULT:      -4.5      1.779      4.709
REMARK  5 active torsions:
REMARK  status: ('A' for Active; 'I' for Inactive)
REMARK    1  A    between atoms: S_2  and  N_1 
REMARK    2  A    between atoms: C_10  and  S_2 
REMARK    3  A    between atoms: N_7  and  C_3 
REMARK    4  A    between atoms: C_12  and  C_6 
REMARK    5  A    between atoms: C_13  and  N_7 
ROOT
ATOM      1  N   UNL d   1     -40.219  14.753  20.193  0.00  0.00    -0.176 N 
ATOM      2  C   UNL d   1     -40.801  14.388  20.643  0.00  0.00     0.191 A 
ATOM      3  C   UNL d   1     -39.619  15.009  20.684  0.00  0.00     0.281 A 
ATOM      4  S   UNL d   1     -40.548  14.424  21.428  0.00  0.00    -0.044 SA
ATOM      5  C   UNL d   1     -39.807  14.817  21.429  0.00  0.00     0.089 A 
ATOM      6  O   UNL d   1     -38.907  15.412  20.471  0.00  0.00    -0.265 OA
ENDROOT
BRANCH   1   7
ATOM      7  S   UNL d   1     -40.226  14.850  19.378  0.00  0.00     0.275 S 
ATOM      8  O   UNL d   1     -40.593  15.597  19.432  0.00  0.00    -0.199 OA
ATOM      9  O   UNL d   1     -39.859  14.108  19.277  0.00  0.00    -0.199 OA
BRANCH   7  10
ATOM     10  C   UNL d   1     -40.230  14.940  18.566  0.00  0.00     0.104 A 
ATOM     11  C   UNL d   1     -39.853  14.376  18.086  0.00  0.00     0.013 A 
ATOM     12  C   UNL d   1     -39.844  14.445  17.256  0.00  0.00     0.001 A 
ATOM     13  C   UNL d   1     -40.230  15.112  16.887  0.00  0.00     0.000 A 
ATOM     14  C   UNL d   1     -40.584  15.638  17.383  0.00  0.00     0.001 A 
ATOM     15  C   UNL d   1     -40.593  15.570  18.188  0.00  0.00     0.013 A 
ENDBRANCH   7  10
ENDBRANCH   1   7
BRANCH   2  16
ATOM     16  N   UNL d   1     -41.463  14.081  20.292  0.00  0.00    -0.222 NA
BRANCH  16  17
ATOM     17  C   UNL d   1     -42.039  13.704  20.759  0.00  0.00     0.084 A 
ATOM     18  C   UNL d   1     -42.705  14.121  20.999  0.00  0.00     0.019 A 
ATOM     19  C   UNL d   1     -43.284  13.759  21.462  0.00  0.00     0.002 A 
ATOM     20  C   UNL d   1     -43.180  12.952  21.686  0.00  0.00     0.000 A 
ATOM     21  C   UNL d   1     -42.514  12.536  21.446  0.00  0.00     0.002 A 
ATOM     22  C   UNL d   1     -41.944  12.918  20.980  0.00  0.00     0.019 A 
ENDBRANCH  16  17
ENDBRANCH   2  16
BRANCH   5  23
ATOM     23  C   UNL d   1     -39.324  14.993  22.068  0.00  0.00     0.011 A 
ATOM     24  C   UNL d   1     -38.784  14.449  22.330  0.00  0.00     0.001 A 
ATOM     25  C   UNL d   1     -38.295  14.621  22.974  0.00  0.00     0.000 A 
ATOM     26  C   UNL d   1     -38.345  15.342  23.359  0.00  0.00     0.000 A 
ATOM     27  C   UNL d   1     -38.901  15.900  23.086  0.00  0.00     0.000 A 
ATOM     28  C   UNL d   1     -39.394  15.731  22.441  0.00  0.00     0.001 A 
ENDBRANCH   5  23
TORSDOF 5
ENDMDL
MODEL 4
REMARK VINA RESULT:      -4.4      1.782      4.161
REMARK  5 active torsions:
REMARK  status: ('A' for Active; 'I' for Inactive)
REMARK    1  A    between atoms: S_2  and  N_1 
REMARK    2  A    between atoms: C_10  and  S_2 
REMARK    3  A    between atoms: N_7  and  C_3 
REMARK    4  A    between atoms: C_12  and  C_6 
REMARK    5  A    between atoms: C_13  and  N_7 
ROOT
ATOM      1  N   UNL d   1     -40.357  14.449  19.623  0.00  0.00    -0.176 N 
ATOM      2  C   UNL d   1     -40.005  14.618  20.345  0.00  0.00     0.191 A 
ATOM      3  C   UNL d   1     -41.083  14.099  19.752  0.00  0.00     0.281 A 
ATOM      4  S   UNL d   1     -40.531  14.364  20.928  0.00  0.00    -0.044 SA
ATOM      5  C   UNL d   1     -41.198  14.043  20.534  0.00  0.00     0.089 A 
ATOM      6  O   UNL d   1     -41.642  13.830  19.177  0.00  0.00    -0.265 OA
ENDROOT
BRANCH   1   7
ATOM      7  S   UNL d   1     -40.040  14.602  18.881  0.00  0.00     0.275 S 
ATOM      8  O   UNL d   1     -39.655  13.863  18.850  0.00  0.00    -0.199 OA
ATOM      9  O   UNL d   1     -40.408  15.350  18.869  0.00  0.00    -0.199 OA
BRANCH   7  10
ATOM     10  C   UNL d   1     -39.728  14.761  18.142  0.00  0.00     0.104 A 
ATOM     11  C   UNL d   1     -39.335  14.162  17.722  0.00  0.00     0.013 A 
ATOM     12  C   UNL d   1     -39.009  14.299  16.969  0.00  0.00     0.001 A 
ATOM     13  C   UNL d   1     -39.079  15.074  16.617  0.00  0.00     0.000 A 
ATOM     14  C   UNL d   1     -39.465  15.630  17.053  0.00  0.00     0.001 A 
ATOM     15  C   UNL d   1     -39.782  15.496  17.784  0.00  0.00     0.013 A 
ENDBRANCH   7  10
ENDBRANCH   1   7
BRANCH   2  16
ATOM     16  N   UNL d   1     -39.276  14.970  20.376  0.00  0.00    -0.222 NA
BRANCH  16  17
ATOM     17  C   UNL d   1     -38.908  15.088  21.113  0.00  0.00     0.084 A 
ATOM     18  C   UNL d   1     -38.445  14.492  21.436  0.00  0.00     0.019 A 
ATOM     19  C   UNL d   1     -38.074  14.596  22.166  0.00  0.00     0.002 A 
ATOM     20  C   UNL d   1     -38.180  15.327  22.576  0.00  0.00     0.000 A 
ATOM     21  C   UNL d   1     -38.644  15.922  22.252  0.00  0.00     0.002 A 
ATOM     22  C   UNL d   1     -39.008  15.797  21.517  0.00  0.00     0.019 A 
ENDBRANCH  16  17
ENDBRANCH   2  16
BRANCH   5  23
ATOM     23  C   UNL d   1     -41.875  13.716  20.861  0.00  0.00     0.011 A 
ATOM     24  C   UNL d   1     -41.898  12.927  21.041  0.00  0.00     0.001 A 
ATOM     25  C   UNL d   1     -42.578  12.593  21.371  0.00  0.00     0.000 A 
ATOM     26  C   UNL d   1     -43.241  13.049  21.522  0.00  0.00     0.000 A 
ATOM     27  C   UNL d   1     -43.214  13.861  21.335  0.00  0.00     0.000 A 
ATOM     28  C   UNL d   1     -42.534  14.201  21.004  0.00  0.00     0.001 A 
ENDBRANCH   5  23
TORSDOF 5
ENDMDL
MODEL 5
REMARK VINA RESULT:      -4.3      0.863      3.263
REMARK  5 active torsions:
REMARK  status: ('A' for Active; 'I' for Inactive)
REMARK    1  A    between atoms: S_2  and  N_1 
REMARK    2  A    between atoms: C_10  and  S_2 
REMARK    3  A    between atoms: N_7  and  C_3 
REMARK    4  A    between atoms: C_12  and  C_6 
REMARK    5  A    between atoms: C_13  and  N_7 
ROOT
ATOM      1  N   UNL d   1     -38.833  14.123  19.245  0.00  0.00    -0.176 N 
ATOM      2  C   UNL d   1     -39.037  14.448  18.519  0.00  0.00     0.191 A 
ATOM      3  C   UNL d   1     -38.586  13.353  19.137  0.00  0.00     0.281 A 
ATOM      4  S   UNL d   1     -38.911  13.859  17.954  0.00  0.00    -0.044 SA
ATOM      5  C   UNL d   1     -38.629  13.183  18.364  0.00  0.00     0.089 A 
ATOM      6  O   UNL d   1     -38.323  12.802  19.722  0.00  0.00    -0.265 OA
ENDROOT
BRANCH   1   7
ATOM      7  S   UNL d   1     -38.867  14.503  19.973  0.00  0.00     0.275 S 
ATOM      8  O   UNL d   1     -39.572  14.113  20.186  0.00  0.00    -0.199 OA
ATOM      9  O   UNL d   1     -38.162  14.914  19.801  0.00  0.00    -0.199 OA
BRANCH   7  10
ATOM     10  C   UNL d   1     -38.894  14.884  20.695  0.00  0.00     0.104 A 
ATOM     11  C   UNL d   1     -39.585  14.848  21.156  0.00  0.00     0.013 A 
ATOM     12  C   UNL d   1     -39.637  15.228  21.894  0.00  0.00     0.001 A 
ATOM     13  C   UNL d   1     -38.966  15.666  22.189  0.00  0.00     0.000 A 
ATOM     14  C   UNL d   1     -38.314  15.680  21.716  0.00  0.00     0.001 A 
ATOM     15  C   UNL d   1     -38.264  15.310  20.999  0.00  0.00     0.013 A 
ENDBRANCH   7  10
ENDBRANCH   1   7
BRANCH   2  16
ATOM     16  N   UNL d   1     -39.303  15.211  18.468  0.00  0.00    -0.222 NA
BRANCH  16  17
ATOM     17  C   UNL d   1     -39.744  15.449  17.804  0.00  0.00     0.084 A 
ATOM     18  C   UNL d   1     -39.357  15.637  17.105  0.00  0.00     0.019 A 
ATOM     19  C   UNL d   1     -39.783  15.875  16.439  0.00  0.00     0.002 A 
ATOM     20  C   UNL d   1     -40.624  15.922  16.489  0.00  0.00     0.000 A 
ATOM     21  C   UNL d   1     -41.010  15.733  17.189  0.00  0.00     0.002 A 
ATOM     22  C   UNL d   1     -40.564  15.497  17.847  0.00  0.00     0.019 A 
ENDBRANCH  16  17
ENDBRANCH   2  16
BRANCH   5  23
ATOM     23  C   UNL d   1     -38.421  12.451  18.058  0.00  0.00     0.011 A 
ATOM     24  C   UNL d   1     -38.151  11.868  18.551  0.00  0.00     0.001 A 
ATOM     25  C   UNL d   1     -37.940  11.129  18.248  0.00  0.00     0.000 A 
ATOM     26  C   UNL d   1     -37.998  10.970  17.447  0.00  0.00     0.000 A 
ATOM     27  C   UNL d   1     -38.276  11.573  16.942  0.00  0.00     0.000 A 
ATOM     28  C   UNL d   1     -38.489  12.316  17.242  0.00  0.00     0.001 A 
ENDBRANCH   5  23
TORSDOF 5
ENDMDL
MODEL 6
REMARK VINA RESULT:      -3.7      1.015      4.015
REMARK  5 active torsions:
REMARK  status: ('A' for Active; 'I' for Inactive)
REMARK    1  A    between atoms: S_2  and  N_1 
REMARK    2  A    between atoms: C_10  and  S_2 
REMARK    3  A    between atoms: N_7  and  C_3 
REMARK    4  A    between atoms: C_12  and  C_6 
REMARK    5  A    between atoms: C_13  and  N_7 
ROOT
ATOM      1  N   UNL d   1     -38.973  13.880  18.922  0.00  0.00    -0.176 N 
ATOM      2  C   UNL d   1     -39.490  14.452  18.640  0.00  0.00     0.191 A 
ATOM      3  C   UNL d   1     -38.749  14.070  19.683  0.00  0.00     0.281 A 
ATOM      4  S   UNL d   1     -39.583  15.005  19.246  0.00  0.00    -0.044 SA
ATOM      5  C   UNL d   1     -39.110  14.745  19.889  0.00  0.00     0.089 A 
ATOM      6  O   UNL d   1     -38.226  13.647  20.195  0.00  0.00    -0.265 OA
ENDROOT
BRANCH   1   7
ATOM      7  S   UNL d   1     -38.713  13.217  18.513  0.00  0.00     0.275 S 
ATOM      8  O   UNL d   1     -37.970  13.559  18.353  0.00  0.00    -0.199 OA
ATOM      9  O   UNL d   1     -39.443  12.837  18.649  0.00  0.00    -0.199 OA
BRANCH   7  10
ATOM     10  C   UNL d   1     -38.462  12.554  18.107  0.00  0.00     0.104 A 
ATOM     11  C   UNL d   1     -38.367  11.834  18.512  0.00  0.00     0.013 A 
ATOM     12  C   UNL d   1     -38.112  11.144  18.121  0.00  0.00     0.001 A 
ATOM     13  C   UNL d   1     -37.944  11.174  17.284  0.00  0.00     0.000 A 
ATOM     14  C   UNL d   1     -38.047  11.889  16.925  0.00  0.00     0.001 A 
ATOM     15  C   UNL d   1     -38.295  12.557  17.305  0.00  0.00     0.013 A 
ENDBRANCH   7  10
ENDBRANCH   1   7
BRANCH   2  16
ATOM     16  N   UNL d   1     -39.799  14.398  17.893  0.00  0.00    -0.222 NA
BRANCH  16  17
ATOM     17  C   UNL d   1     -40.415  14.908  17.665  0.00  0.00     0.084 A 
ATOM     18  C   UNL d   1     -40.409  15.242  16.914  0.00  0.00     0.019 A 
ATOM     19  C   UNL d   1     -41.013  15.751  16.675  0.00  0.00     0.002 A 
ATOM     20  C   UNL d   1     -41.639  15.921  17.215  0.00  0.00     0.000 A 
ATOM     21  C   UNL d   1     -41.644  15.586  17.965  0.00  0.00     0.002 A 
ATOM     22  C   UNL d   1     -41.027  15.078  18.186  0.00  0.00     0.019 A 
ENDBRANCH  16  17
ENDBRANCH   2  16
BRANCH   5  23
ATOM     23  C   UNL d   1     -39.009  15.097  20.622  0.00  0.00     0.011 A 
ATOM     24  C   UNL d   1     -38.326  15.499  20.788  0.00  0.00     0.001 A 
ATOM     25  C   UNL d   1     -38.219  15.856  21.526  0.00  0.00     0.000 A 
ATOM     26  C   UNL d   1     -38.798  15.811  22.103  0.00  0.00     0.000 A 
ATOM     27  C   UNL d   1     -39.500  15.397  21.929  0.00  0.00     0.000 A 
ATOM     28  C   UNL d   1     -39.612  15.037  21.190  0.00  0.00     0.001 A 
ENDBRANCH   5  23
TORSDOF 5
ENDMDL
MODEL 7
REMARK VINA RESULT:      -3.7      1.895      3.608
REMARK  5 active torsions:
REMARK  status: ('A' for Active; 'I' for Inactive)
REMARK    1  A    between atoms: S_2  and  N_1 
REMARK    2  A    between atoms: C_10  and  S_2 
REMARK    3  A    between atoms: N_7  and  C_3 
REMARK    4  A    between atoms: C_12  and  C_6 
REMARK    5  A    between atoms: C_13  and  N_7 
ROOT
ATOM      1  N   UNL d   1     -40.737  14.342  20.193  0.00  0.00    -0.176 N 
ATOM      2  C   UNL d   1     -40.086  14.647  20.590  0.00  0.00     0.191 A 
ATOM      3  C   UNL d   1     -40.627  14.423  19.389  0.00  0.00     0.281 A 
ATOM      4  S   UNL d   1     -39.566  14.921  20.011  0.00  0.00    -0.044 SA
ATOM      5  C   UNL d   1     -39.925  14.771  19.267  0.00  0.00     0.089 A 
ATOM      6  O   UNL d   1     -41.146  14.190  18.764  0.00  0.00    -0.265 OA
ENDROOT
BRANCH   1   7
ATOM      7  S   UNL d   1     -41.402  14.005  20.539  0.00  0.00     0.275 S 
ATOM      8  O   UNL d   1     -41.730  14.749  20.723  0.00  0.00    -0.199 OA
ATOM      9  O   UNL d   1     -41.110  13.241  20.375  0.00  0.00    -0.199 OA
BRANCH   7  10
ATOM     10  C   UNL d   1     -42.060  13.663  20.882  0.00  0.00     0.104 A 
ATOM     11  C   UNL d   1     -42.050  12.855  21.080  0.00  0.00     0.013 A 
ATOM     12  C   UNL d   1     -42.707  12.484  21.429  0.00  0.00     0.001 A 
ATOM     13  C   UNL d   1     -43.411  12.941  21.591  0.00  0.00     0.000 A 
ATOM     14  C   UNL d   1     -43.384  13.720  21.386  0.00  0.00     0.001 A 
ATOM     15  C   UNL d   1     -42.746  14.080  21.047  0.00  0.00     0.013 A 
ENDBRANCH   7  10
ENDBRANCH   1   7
BRANCH   2  16
ATOM     16  N   UNL d   1     -40.053  14.636  21.399  0.00  0.00    -0.222 NA
BRANCH  16  17
ATOM     17  C   UNL d   1     -39.358  14.881  21.785  0.00  0.00     0.084 A 
ATOM     18  C   UNL d   1     -38.777  14.329  21.964  0.00  0.00     0.019 A 
ATOM     19  C   UNL d   1     -38.082  14.558  22.347  0.00  0.00     0.002 A 
ATOM     20  C   UNL d   1     -37.980  15.370  22.551  0.00  0.00     0.000 A 
ATOM     21  C   UNL d   1     -38.562  15.922  22.372  0.00  0.00     0.002 A 
ATOM     22  C   UNL d   1     -39.252  15.671  21.987  0.00  0.00     0.019 A 
ENDBRANCH  16  17
ENDBRANCH   2  16
BRANCH   5  23
ATOM     23  C   UNL d   1     -39.636  14.937  18.518  0.00  0.00     0.011 A 
ATOM     24  C   UNL d   1     -39.813  15.643  18.163  0.00  0.00     0.001 A 
ATOM     25  C   UNL d   1     -39.524  15.816  17.408  0.00  0.00     0.000 A 
ATOM     26  C   UNL d   1     -39.055  15.281  17.005  0.00  0.00     0.000 A 
ATOM     27  C   UNL d   1     -38.874  14.555  17.373  0.00  0.00     0.000 A 
ATOM     28  C   UNL d   1     -39.162  14.377  18.130  0.00  0.00     0.001 A 
ENDBRANCH   5  23
TORSDOF 5
ENDMDL
MODEL 8
REMARK VINA RESULT:      -3.0      2.198      4.212
REMARK  5 active torsions:
REMARK  status: ('A' for Active; 'I' for Inactive)
REMARK    1  A    between atoms: S_2  and  N_1 
REMARK    2  A    between atoms: C_10  and  S_2 
REMARK    3  A    between atoms: N_7  and  C_3 
REMARK    4  A    between atoms: C_12  and  C_6 
REMARK    5  A    between atoms: C_13  and  N_7 
ROOT
ATOM      1  N   UNL d   1     -41.072  14.146  20.974  0.00  0.00    -0.176 N 
ATOM      2  C   UNL d   1     -40.769  14.375  20.246  0.00  0.00     0.191 A 
ATOM      3  C   UNL d   1     -40.536  14.331  21.561  0.00  0.00     0.281 A 
ATOM      4  S   UNL d   1     -40.029  14.709  20.394  0.00  0.00    -0.044 SA
ATOM      5  C   UNL d   1     -39.904  14.670  21.223  0.00  0.00     0.089 A 
ATOM      6  O   UNL d   1     -40.606  14.199  22.393  0.00  0.00    -0.265 OA
ENDROOT
BRANCH   1   7
ATOM      7  S   UNL d   1     -41.799  13.786  21.105  0.00  0.00     0.275 S 
ATOM      8  O   UNL d   1     -42.192  14.518  21.176  0.00  0.00    -0.199 OA
ATOM      9  O   UNL d   1     -41.447  13.033  21.042  0.00  0.00    -0.199 OA
BRANCH   7  10
ATOM     10  C   UNL d   1     -42.518  13.421  21.235  0.00  0.00     0.104 A 
ATOM     11  C   UNL d   1     -43.218  13.868  21.213  0.00  0.00     0.013 A 
ATOM     12  C   UNL d   1     -43.963  13.520  21.342  0.00  0.00     0.001 A 
ATOM     13  C   UNL d   1     -44.012  12.682  21.501  0.00  0.00     0.000 A 
ATOM     14  C   UNL d   1     -43.314  12.280  21.514  0.00  0.00     0.001 A 
ATOM     15  C   UNL d   1     -42.591  12.619  21.389  0.00  0.00     0.013 A 
ENDBRANCH   7  10
ENDBRANCH   1   7
BRANCH   2  16
ATOM     16  N   UNL d   1     -41.192  14.255  19.566  0.00  0.00    -0.222 NA
BRANCH  16  17
ATOM     17  C   UNL d   1     -40.873  14.494  18.836  0.00  0.00     0.084 A 
ATOM     18  C   UNL d   1     -40.410  13.971  18.404  0.00  0.00     0.019 A 
ATOM     19  C   UNL d   1     -40.087  14.194  17.678  0.00  0.00     0.002 A 
ATOM     20  C   UNL d   1     -40.242  14.971  17.387  0.00  0.00     0.000 A 
ATOM     21  C   UNL d   1     -40.705  15.494  17.819  0.00  0.00     0.002 A 
ATOM     22  C   UNL d   1     -41.020  15.249  18.546  0.00  0.00     0.019 A 
ENDBRANCH  16  17
ENDBRANCH   2  16
BRANCH   5  23
ATOM     23  C   UNL d   1     -39.255  14.927  21.654  0.00  0.00     0.011 A 
ATOM     24  C   UNL d   1     -38.600  14.455  21.719  0.00  0.00     0.001 A 
ATOM     25  C   UNL d   1     -37.943  14.709  22.152  0.00  0.00     0.000 A 
ATOM     26  C   UNL d   1     -37.940  15.439  22.522  0.00  0.00     0.000 A 
ATOM     27  C   UNL d   1     -38.616  15.922  22.453  0.00  0.00     0.000 A 
ATOM     28  C   UNL d   1     -39.277  15.671  22.020  0.00  0.00     0.001 A 
ENDBRANCH   5  23
TORSDOF 5
ENDMDL
MODEL 9
REMARK VINA RESULT:      -2.9      1.867      3.749
REMARK  5 active torsions:
REMARK  status: ('A' for Active; 'I' for Inactive)
REMARK    1  A    between atoms: S_2  and  N_1 
REMARK    2  A    between atoms: C_10  and  S_2 
REMARK    3  A    between atoms: N_7  and  C_3 
REMARK    4  A    between atoms: C_12  and  C_6 
REMARK    5  A    between atoms: C_13  and  N_7 
ROOT
ATOM      1  N   UNL d   1     -38.990  14.346  17.313  0.00  0.00    -0.176 N 
ATOM      2  C   UNL d   1     -38.749  13.672  17.715  0.00  0.00     0.191 A 
ATOM      3  C   UNL d   1     -39.522  14.760  17.773  0.00  0.00     0.281 A 
ATOM      4  S   UNL d   1     -39.146  13.676  18.439  0.00  0.00    -0.044 SA
ATOM      5  C   UNL d   1     -39.624  14.366  18.453  0.00  0.00     0.089 A 
ATOM      6  O   UNL d   1     -39.917  15.485  17.590  0.00  0.00    -0.265 OA
ENDROOT
BRANCH   1   7
ATOM      7  S   UNL d   1     -38.742  14.579  16.565  0.00  0.00     0.275 S 
ATOM      8  O   UNL d   1     -39.207  13.998  16.188  0.00  0.00    -0.199 OA
ATOM      9  O   UNL d   1     -38.264  15.174  16.899  0.00  0.00    -0.199 OA
BRANCH   7  10
ATOM     10  C   UNL d   1     -38.492  14.816  15.824  0.00  0.00     0.104 A 
ATOM     11  C   UNL d   1     -38.544  14.290  15.182  0.00  0.00     0.013 A 
ATOM     12  C   UNL d   1     -38.295  14.508  14.419  0.00  0.00     0.001 A 
ATOM     13  C   UNL d   1     -37.978  15.290  14.288  0.00  0.00     0.000 A 
ATOM     14  C   UNL d   1     -37.942  15.773  14.933  0.00  0.00     0.001 A 
ATOM     15  C   UNL d   1     -38.184  15.560  15.674  0.00  0.00     0.013 A 
ENDBRANCH   7  10
ENDBRANCH   1   7
BRANCH   2  16
ATOM     16  N   UNL d   1     -38.218  13.160  17.382  0.00  0.00    -0.222 NA
BRANCH  16  17
ATOM     17  C   UNL d   1     -38.125  12.398  17.703  0.00  0.00     0.084 A 
ATOM     18  C   UNL d   1     -38.050  12.306  18.515  0.00  0.00     0.019 A 
ATOM     19  C   UNL d   1     -37.957  11.556  18.848  0.00  0.00     0.002 A 
ATOM     20  C   UNL d   1     -37.940  10.884  18.336  0.00  0.00     0.000 A 
ATOM     21  C   UNL d   1     -38.014  10.978  17.524  0.00  0.00     0.002 A 
ATOM     22  C   UNL d   1     -38.107  11.740  17.210  0.00  0.00     0.019 A 
ENDBRANCH  16  17
ENDBRANCH   2  16
BRANCH   5  23
ATOM     23  C   UNL d   1     -40.125  14.627  19.047  0.00  0.00     0.011 A 
ATOM     24  C   UNL d   1     -39.899  15.238  19.528  0.00  0.00     0.001 A 
ATOM     25  C   UNL d   1     -40.400  15.506  20.128  0.00  0.00     0.000 A 
ATOM     26  C   UNL d   1     -41.132  15.161  20.249  0.00  0.00     0.000 A 
ATOM     27  C   UNL d   1     -41.362  14.532  19.753  0.00  0.00     0.000 A 
ATOM     28  C   UNL d   1     -40.862  14.260  19.149  0.00  0.00     0.001 A 
ENDBRANCH   5  23
TORSDOF 5
ENDMDL
