MODEL 1
REMARK VINA RESULT:      -8.3      0.000      0.000
REMARK  7 active torsions:
REMARK  status: ('A' for Active; 'I' for Inactive)
REMARK    1  A    between atoms: C_11  and  C_4 
REMARK    2  A    between atoms: N_12  and  C_5 
REMARK    3  A    between atoms: C_10  and  C_8 
REMARK    4  A    between atoms: C_15  and  N_12 
REMARK    5  A    between atoms: N_13  and  C_19 
REMARK    6  A    between atoms: C_14  and  C_15 
REMARK    7  A    between atoms: C_19  and  C_14 
ROOT
ATOM      1  C   UNL d   1      52.644  33.934  53.802  0.00  0.00     0.168 A 
ATOM      2  N   UNL d   1      51.952  34.274  53.475  0.00  0.00    -0.184 N 
ATOM      3  N   UNL d   1      52.810  33.145  53.671  0.00  0.00    -0.231 NA
ATOM      4  C   UNL d   1      53.147  34.385  54.247  0.00  0.00     0.057 A 
ATOM      5  C   UNL d   1      51.465  33.805  53.035  0.00  0.00     0.217 A 
ATOM      6  N   UNL d   1      52.297  35.501  54.052  0.00  0.00    -0.160 NA
ATOM      7  C   UNL d   1      51.622  33.013  52.896  0.00  0.00     0.067 A 
ATOM      8  C   UNL d   1      52.304  32.678  53.219  0.00  0.00     0.064 A 
ATOM      9  C   UNL d   1      52.978  35.166  54.374  0.00  0.00     0.124 A 
ENDROOT
BRANCH   5  10
ATOM     10  N   UNL d   1      50.761  34.151  52.702  0.00  0.00    -0.380 NA
BRANCH  10  11
ATOM     11  C   UNL d   1      50.077  34.456  52.310  0.00  0.00     0.164 C 
BRANCH  11  12
ATOM     12  C   UNL d   1      49.479  34.842  52.776  0.00  0.00     0.054 C 
BRANCH  12  13
ATOM     13  C   UNL d   1      48.814  35.212  52.381  0.00  0.00     0.083 C 
BRANCH  13  14
ATOM     14  N   UNL d   1      48.290  35.713  52.819  0.00  0.00    -0.300 N 
ATOM     15  C   UNL d   1      47.759  35.775  52.160  0.00  0.00     0.100 C 
ATOM     16  C   UNL d   1      48.101  36.123  53.544  0.00  0.00     0.100 C 
ENDBRANCH  13  14
ENDBRANCH  12  13
ENDBRANCH  11  12
ENDBRANCH  10  11
ENDBRANCH   5  10
BRANCH   8  17
ATOM     17  C   UNL d   1      52.481  31.854  53.084  0.00  0.00     0.036 C 
ATOM     18  C   UNL d   1      52.660  31.043  52.948  0.00  0.00     0.006 C 
ATOM     19  C   UNL d   1      52.062  31.257  53.520  0.00  0.00     0.006 C 
ATOM     20  C   UNL d   1      53.078  31.636  52.513  0.00  0.00     0.006 C 
ENDBRANCH   8  17
BRANCH   4  21
ATOM     21  C   UNL d   1      53.828  34.050  54.569  0.00  0.00     0.004 A 
ATOM     22  C   UNL d   1      53.791  33.698  55.289  0.00  0.00     0.000 A 
ATOM     23  C   UNL d   1      54.472  33.363  55.612  0.00  0.00     0.000 A 
ATOM     24  C   UNL d   1      55.170  33.391  55.203  0.00  0.00     0.000 A 
ATOM     25  C   UNL d   1      55.202  33.751  54.471  0.00  0.00     0.000 A 
ATOM     26  C   UNL d   1      54.520  34.086  54.149  0.00  0.00     0.000 A 
ENDBRANCH   4  21
TORSDOF 7
ENDMDL
MODEL 2
REMARK VINA RESULT:      -6.6      1.626      4.305
REMARK  7 active torsions:
REMARK  status: ('A' for Active; 'I' for Inactive)
REMARK    1  A    between atoms: C_11  and  C_4 
REMARK    2  A    between atoms: N_12  and  C_5 
REMARK    3  A    between atoms: C_10  and  C_8 
REMARK    4  A    between atoms: C_15  and  N_12 
REMARK    5  A    between atoms: N_13  and  C_19 
REMARK    6  A    between atoms: C_14  and  C_15 
REMARK    7  A    between atoms: C_19  and  C_14 
ROOT
ATOM      1  C   UNL d   1      53.089  33.381  53.865  0.00  0.00     0.168 A 
ATOM      2  N   UNL d   1      53.242  32.569  53.727  0.00  0.00    -0.184 N 
ATOM      3  N   UNL d   1      52.435  33.735  53.527  0.00  0.00    -0.231 NA
ATOM      4  C   UNL d   1      53.587  33.814  54.332  0.00  0.00     0.057 A 
ATOM      5  C   UNL d   1      52.732  32.157  53.258  0.00  0.00     0.217 A 
ATOM      6  N   UNL d   1      54.385  32.661  54.529  0.00  0.00    -0.160 NA
ATOM      7  C   UNL d   1      52.073  32.501  52.913  0.00  0.00     0.067 A 
ATOM      8  C   UNL d   1      51.922  33.300  53.050  0.00  0.00     0.064 A 
ATOM      9  C   UNL d   1      54.234  33.461  54.665  0.00  0.00     0.124 A 
ENDROOT
BRANCH   5  10
ATOM     10  N   UNL d   1      52.888  31.331  53.117  0.00  0.00    -0.380 NA
BRANCH  10  11
ATOM     11  C   UNL d   1      52.970  30.500  52.985  0.00  0.00     0.164 C 
BRANCH  11  12
ATOM     12  C   UNL d   1      52.775  29.966  53.619  0.00  0.00     0.054 C 
BRANCH  12  13
ATOM     13  C   UNL d   1      53.325  29.342  53.825  0.00  0.00     0.083 C 
BRANCH  13  14
ATOM     14  N   UNL d   1      53.315  29.014  54.606  0.00  0.00    -0.300 N 
ATOM     15  C   UNL d   1      53.723  28.317  54.344  0.00  0.00     0.100 C 
ATOM     16  C   UNL d   1      53.098  29.082  55.429  0.00  0.00     0.100 C 
ENDBRANCH  13  14
ENDBRANCH  12  13
ENDBRANCH  11  12
ENDBRANCH  10  11
ENDBRANCH   5  10
BRANCH   8  17
ATOM     17  C   UNL d   1      51.240  33.673  52.698  0.00  0.00     0.036 C 
ATOM     18  C   UNL d   1      50.570  34.043  52.347  0.00  0.00     0.006 C 
ATOM     19  C   UNL d   1      50.494  33.656  53.106  0.00  0.00     0.006 C 
ATOM     20  C   UNL d   1      51.311  34.062  51.940  0.00  0.00     0.006 C 
ENDBRANCH   8  17
BRANCH   4  21
ATOM     21  C   UNL d   1      53.436  34.614  54.468  0.00  0.00     0.004 A 
ATOM     22  C   UNL d   1      53.709  35.160  53.947  0.00  0.00     0.000 A 
ATOM     23  C   UNL d   1      53.559  35.959  54.083  0.00  0.00     0.000 A 
ATOM     24  C   UNL d   1      53.140  36.188  54.737  0.00  0.00     0.000 A 
ATOM     25  C   UNL d   1      52.865  35.628  55.263  0.00  0.00     0.000 A 
ATOM     26  C   UNL d   1      53.016  34.828  55.126  0.00  0.00     0.000 A 
ENDBRANCH   4  21
TORSDOF 7
ENDMDL
MODEL 3
REMARK VINA RESULT:      -6.6      1.027      2.422
REMARK  7 active torsions:
REMARK  status: ('A' for Active; 'I' for Inactive)
REMARK    1  A    between atoms: C_11  and  C_4 
REMARK    2  A    between atoms: N_12  and  C_5 
REMARK    3  A    between atoms: C_10  and  C_8 
REMARK    4  A    between atoms: C_15  and  N_12 
REMARK    5  A    between atoms: N_13  and  C_19 
REMARK    6  A    between atoms: C_14  and  C_15 
REMARK    7  A    between atoms: C_19  and  C_14 
ROOT
ATOM      1  C   UNL d   1      52.332  33.388  53.295  0.00  0.00     0.168 A 
ATOM      2  N   UNL d   1      51.585  33.519  52.939  0.00  0.00    -0.184 N 
ATOM      3  N   UNL d   1      52.709  33.998  53.686  0.00  0.00    -0.231 NA
ATOM      4  C   UNL d   1      52.680  32.659  53.251  0.00  0.00     0.057 A 
ATOM      5  C   UNL d   1      51.257  34.254  52.996  0.00  0.00     0.217 A 
ATOM      6  N   UNL d   1      51.568  32.187  52.512  0.00  0.00    -0.160 NA
ATOM      7  C   UNL d   1      51.626  34.873  53.386  0.00  0.00     0.067 A 
ATOM      8  C   UNL d   1      52.362  34.743  53.735  0.00  0.00     0.064 A 
ATOM      9  C   UNL d   1      52.304  32.057  52.862  0.00  0.00     0.124 A 
ENDROOT
BRANCH   5  10
ATOM     10  N   UNL d   1      50.497  34.387  52.635  0.00  0.00    -0.380 NA
BRANCH  10  11
ATOM     11  C   UNL d   1      49.779  34.544  52.216  0.00  0.00     0.164 C 
BRANCH  11  12
ATOM     12  C   UNL d   1      49.176  35.006  52.601  0.00  0.00     0.054 C 
BRANCH  12  13
ATOM     13  C   UNL d   1      48.495  35.264  52.149  0.00  0.00     0.083 C 
BRANCH  13  14
ATOM     14  N   UNL d   1      47.936  35.796  52.499  0.00  0.00    -0.300 N 
ATOM     15  C   UNL d   1      47.419  35.732  51.829  0.00  0.00     0.100 C 
ATOM     16  C   UNL d   1      47.708  36.298  53.152  0.00  0.00     0.100 C 
ENDBRANCH  13  14
ENDBRANCH  12  13
ENDBRANCH  11  12
ENDBRANCH  10  11
ENDBRANCH   5  10
BRANCH   8  17
ATOM     17  C   UNL d   1      52.758  35.378  54.145  0.00  0.00     0.036 C 
ATOM     18  C   UNL d   1      53.148  36.003  54.554  0.00  0.00     0.006 C 
ATOM     19  C   UNL d   1      53.328  35.855  53.731  0.00  0.00     0.006 C 
ATOM     20  C   UNL d   1      52.581  35.530  54.967  0.00  0.00     0.006 C 
ENDBRANCH   8  17
BRANCH   4  21
ATOM     21  C   UNL d   1      53.416  32.530  53.600  0.00  0.00     0.004 A 
ATOM     22  C   UNL d   1      54.083  32.659  53.172  0.00  0.00     0.000 A 
ATOM     23  C   UNL d   1      54.819  32.530  53.522  0.00  0.00     0.000 A 
ATOM     24  C   UNL d   1      54.865  32.275  54.288  0.00  0.00     0.000 A 
ATOM     25  C   UNL d   1      54.183  32.145  54.718  0.00  0.00     0.000 A 
ATOM     26  C   UNL d   1      53.447  32.274  54.368  0.00  0.00     0.000 A 
ENDBRANCH   4  21
TORSDOF 7
ENDMDL
MODEL 4
REMARK VINA RESULT:      -6.2      1.222      2.985
REMARK  7 active torsions:
REMARK  status: ('A' for Active; 'I' for Inactive)
REMARK    1  A    between atoms: C_11  and  C_4 
REMARK    2  A    between atoms: N_12  and  C_5 
REMARK    3  A    between atoms: C_10  and  C_8 
REMARK    4  A    between atoms: C_15  and  N_12 
REMARK    5  A    between atoms: N_13  and  C_19 
REMARK    6  A    between atoms: C_14  and  C_15 
REMARK    7  A    between atoms: C_19  and  C_14 
ROOT
ATOM      1  C   UNL d   1      52.809  31.897  53.466  0.00  0.00     0.168 A 
ATOM      2  N   UNL d   1      52.288  32.494  53.194  0.00  0.00    -0.184 N 
ATOM      3  N   UNL d   1      53.445  32.097  53.938  0.00  0.00    -0.231 NA
ATOM      4  C   UNL d   1      52.682  31.124  53.264  0.00  0.00     0.057 A 
ATOM      5  C   UNL d   1      52.435  33.258  53.408  0.00  0.00     0.217 A 
ATOM      6  N   UNL d   1      51.538  31.519  52.529  0.00  0.00    -0.160 NA
ATOM      7  C   UNL d   1      53.070  33.470  53.880  0.00  0.00     0.067 A 
ATOM      8  C   UNL d   1      53.582  32.881  54.149  0.00  0.00     0.064 A 
ATOM      9  C   UNL d   1      52.050  30.931  52.797  0.00  0.00     0.124 A 
ENDROOT
BRANCH   5  10
ATOM     10  N   UNL d   1      51.906  33.865  53.131  0.00  0.00    -0.380 NA
BRANCH  10  11
ATOM     11  C   UNL d   1      51.426  34.477  52.798  0.00  0.00     0.164 C 
BRANCH  11  12
ATOM     12  C   UNL d   1      50.594  34.483  52.974  0.00  0.00     0.054 C 
BRANCH  12  13
ATOM     13  C   UNL d   1      50.038  34.715  52.364  0.00  0.00     0.083 C 
BRANCH  13  14
ATOM     14  N   UNL d   1      49.281  35.027  52.582  0.00  0.00    -0.300 N 
ATOM     15  C   UNL d   1      48.923  34.715  51.878  0.00  0.00     0.100 C 
ATOM     16  C   UNL d   1      48.797  35.463  53.135  0.00  0.00     0.100 C 
ENDBRANCH  13  14
ENDBRANCH  12  13
ENDBRANCH  11  12
ENDBRANCH  10  11
ENDBRANCH   5  10
BRANCH   8  17
ATOM     17  C   UNL d   1      54.248  33.086  54.641  0.00  0.00     0.036 C 
ATOM     18  C   UNL d   1      54.903  33.287  55.131  0.00  0.00     0.006 C 
ATOM     19  C   UNL d   1      54.983  33.317  54.280  0.00  0.00     0.006 C 
ATOM     20  C   UNL d   1      54.173  33.057  55.492  0.00  0.00     0.006 C 
ENDBRANCH   8  17
BRANCH   4  21
ATOM     21  C   UNL d   1      53.194  30.536  53.533  0.00  0.00     0.004 A 
ATOM     22  C   UNL d   1      53.871  30.390  53.128  0.00  0.00     0.000 A 
ATOM     23  C   UNL d   1      54.383  29.802  53.396  0.00  0.00     0.000 A 
ATOM     24  C   UNL d   1      54.202  29.378  54.061  0.00  0.00     0.000 A 
ATOM     25  C   UNL d   1      53.512  29.532  54.468  0.00  0.00     0.000 A 
ATOM     26  C   UNL d   1      52.999  30.120  54.200  0.00  0.00     0.000 A 
ENDBRANCH   4  21
TORSDOF 7
ENDMDL
