MODEL 1
REMARK VINA RESULT:      -2.9      0.000      0.000
REMARK  5 active torsions:
REMARK  status: ('A' for Active; 'I' for Inactive)
REMARK    1  A    between atoms: C_2  and  C_1 
REMARK    2  A    between atoms: C_8  and  C_2 
REMARK    3  A    between atoms: O_18  and  C_7 
REMARK    4  A    between atoms: C_13  and  C_8 
REMARK    5  A    between atoms: O_20  and  C_11 
ROOT
ATOM      1  C   UNL d   1      32.555  21.128 -21.343  0.00  0.00     0.202 C 
ATOM      2  O   UNL d   1      31.846  20.715 -21.434  0.00  0.00    -0.286 OA
ENDROOT
BRANCH   1   3
ATOM      3  C   UNL d   1      32.595  21.768 -20.825  0.00  0.00     0.117 A 
ATOM      4  C   UNL d   1      32.297  22.503 -21.056  0.00  0.00     0.205 A 
ATOM      5  C   UNL d   1      32.336  23.144 -20.541  0.00  0.00     0.084 A 
ATOM      6  O   UNL d   1      31.959  22.602 -21.802  0.00  0.00    -0.286 OA
ATOM      7  C   UNL d   1      32.673  23.053 -19.793  0.00  0.00     0.202 A 
ATOM      8  C   UNL d   1      32.971  22.322 -19.560  0.00  0.00     0.084 A 
ATOM      9  O   UNL d   1      32.711  23.702 -19.276  0.00  0.00    -0.286 OA
ATOM     10  C   UNL d   1      32.932  21.677 -20.077  0.00  0.00     0.205 A 
ATOM     11  O   UNL d   1      33.230  20.946 -19.844  0.00  0.00    -0.286 OA
ENDBRANCH   1   3
BRANCH   1  12
ATOM     12  C   UNL d   1      33.217  20.900 -21.769  0.00  0.00     0.042 C 
BRANCH  12  13
ATOM     13  C   UNL d   1      33.179  20.261 -22.287  0.00  0.00     0.005 A 
ATOM     14  C   UNL d   1      33.215  20.390 -23.100  0.00  0.00     0.026 A 
ATOM     15  C   UNL d   1      33.177  19.751 -23.617  0.00  0.00     0.116 A 
ATOM     16  C   UNL d   1      33.103  18.984 -23.323  0.00  0.00     0.116 A 
ATOM     17  C   UNL d   1      33.068  18.857 -22.507  0.00  0.00     0.026 A 
ATOM     18  C   UNL d   1      33.106  19.504 -21.992  0.00  0.00     0.002 A 
BRANCH  15  19
ATOM     19  O   UNL d   1      33.212  19.877 -24.438  0.00  0.00    -0.326 OA
ATOM     20  C   UNL d   1      33.239  20.644 -24.737  0.00  0.00     0.181 C 
ENDBRANCH  15  19
BRANCH  16  21
ATOM     21  O   UNL d   1      33.064  18.333 -23.837  0.00  0.00    -0.326 OA
ATOM     22  C   UNL d   1      33.007  17.573 -23.546  0.00  0.00     0.181 C 
ENDBRANCH  16  21
ENDBRANCH  12  13
ENDBRANCH   1  12
TORSDOF 5
ENDMDL
MODEL 2
REMARK VINA RESULT:      -1.6      4.087      6.093
REMARK  5 active torsions:
REMARK  status: ('A' for Active; 'I' for Inactive)
REMARK    1  A    between atoms: C_2  and  C_1 
REMARK    2  A    between atoms: C_8  and  C_2 
REMARK    3  A    between atoms: O_18  and  C_7 
REMARK    4  A    between atoms: C_13  and  C_8 
REMARK    5  A    between atoms: O_20  and  C_11 
ROOT
ATOM      1  C   UNL d   1      29.830  17.112 -24.553  0.00  0.00     0.202 C 
ATOM      2  O   UNL d   1      29.730  17.853 -24.903  0.00  0.00    -0.286 OA
ENDROOT
BRANCH   1   3
ATOM      3  C   UNL d   1      29.174  16.695 -24.277  0.00  0.00     0.117 A 
ATOM      4  C   UNL d   1      28.586  17.089 -23.850  0.00  0.00     0.205 A 
ATOM      5  C   UNL d   1      27.931  16.676 -23.573  0.00  0.00     0.084 A 
ATOM      6  O   UNL d   1      28.650  17.897 -23.698  0.00  0.00    -0.286 OA
ATOM      7  C   UNL d   1      27.859  15.867 -23.722  0.00  0.00     0.202 A 
ATOM      8  C   UNL d   1      28.443  15.472 -24.147  0.00  0.00     0.084 A 
ATOM      9  O   UNL d   1      27.196  15.453 -23.441  0.00  0.00    -0.286 OA
ATOM     10  C   UNL d   1      29.103  15.887 -24.426  0.00  0.00     0.205 A 
ATOM     11  O   UNL d   1      29.686  15.491 -24.851  0.00  0.00    -0.286 OA
ENDBRANCH   1   3
BRANCH   1  12
ATOM     12  C   UNL d   1      30.581  16.793 -24.481  0.00  0.00     0.042 C 
BRANCH  12  13
ATOM     13  C   UNL d   1      31.243  17.281 -24.495  0.00  0.00     0.005 A 
ATOM     14  C   UNL d   1      31.830  17.192 -23.923  0.00  0.00     0.026 A 
ATOM     15  C   UNL d   1      32.492  17.681 -23.936  0.00  0.00     0.116 A 
ATOM     16  C   UNL d   1      32.569  18.258 -24.521  0.00  0.00     0.116 A 
ATOM     17  C   UNL d   1      31.979  18.345 -25.094  0.00  0.00     0.026 A 
ATOM     18  C   UNL d   1      31.316  17.851 -25.074  0.00  0.00     0.002 A 
BRANCH  15  19
ATOM     19  O   UNL d   1      33.086  17.594 -23.361  0.00  0.00    -0.326 OA
ATOM     20  C   UNL d   1      33.019  17.011 -22.784  0.00  0.00     0.181 C 
ENDBRANCH  15  19
BRANCH  16  21
ATOM     21  O   UNL d   1      33.233  18.755 -24.543  0.00  0.00    -0.326 OA
ATOM     22  C   UNL d   1      33.237  19.427 -25.006  0.00  0.00     0.181 C 
ENDBRANCH  16  21
ENDBRANCH  12  13
ENDBRANCH   1  12
TORSDOF 5
ENDMDL
MODEL 3
REMARK VINA RESULT:      -1.6      1.210      4.766
REMARK  5 active torsions:
REMARK  status: ('A' for Active; 'I' for Inactive)
REMARK    1  A    between atoms: C_2  and  C_1 
REMARK    2  A    between atoms: C_8  and  C_2 
REMARK    3  A    between atoms: O_18  and  C_7 
REMARK    4  A    between atoms: C_13  and  C_8 
REMARK    5  A    between atoms: O_20  and  C_11 
ROOT
ATOM      1  C   UNL d   1      32.518  18.809 -23.249  0.00  0.00     0.202 C 
ATOM      2  O   UNL d   1      31.782  19.109 -23.029  0.00  0.00    -0.286 OA
ENDROOT
BRANCH   1   3
ATOM      3  C   UNL d   1      32.564  18.128 -23.712  0.00  0.00     0.117 A 
ATOM      4  C   UNL d   1      32.741  17.401 -23.359  0.00  0.00     0.205 A 
ATOM      5  C   UNL d   1      32.787  16.721 -23.819  0.00  0.00     0.084 A 
ATOM      6  O   UNL d   1      32.871  17.352 -22.546  0.00  0.00    -0.286 OA
ATOM      7  C   UNL d   1      32.658  16.762 -24.633  0.00  0.00     0.202 A 
ATOM      8  C   UNL d   1      32.482  17.484 -24.987  0.00  0.00     0.084 A 
ATOM      9  O   UNL d   1      32.706  16.073 -25.094  0.00  0.00    -0.286 OA
ATOM     10  C   UNL d   1      32.435  18.170 -24.526  0.00  0.00     0.205 A 
ATOM     11  O   UNL d   1      32.259  18.892 -24.880  0.00  0.00    -0.286 OA
ENDBRANCH   1   3
BRANCH   1  12
ATOM     12  C   UNL d   1      33.202  19.188 -23.005  0.00  0.00     0.042 C 
BRANCH  12  13
ATOM     13  C   UNL d   1      33.159  19.872 -22.549  0.00  0.00     0.005 A 
ATOM     14  C   UNL d   1      33.129  20.608 -22.918  0.00  0.00     0.026 A 
ATOM     15  C   UNL d   1      33.085  21.293 -22.462  0.00  0.00     0.116 A 
ATOM     16  C   UNL d   1      33.071  21.242 -21.639  0.00  0.00     0.116 A 
ATOM     17  C   UNL d   1      33.101  20.501 -21.272  0.00  0.00     0.026 A 
ATOM     18  C   UNL d   1      33.145  19.818 -21.735  0.00  0.00     0.002 A 
BRANCH  15  19
ATOM     19  O   UNL d   1      33.055  22.037 -22.831  0.00  0.00    -0.326 OA
ATOM     20  C   UNL d   1      33.232  22.108 -23.631  0.00  0.00     0.181 C 
ENDBRANCH  15  19
BRANCH  16  21
ATOM     21  O   UNL d   1      33.028  21.926 -21.172  0.00  0.00    -0.326 OA
ATOM     22  C   UNL d   1      33.227  21.905 -20.381  0.00  0.00     0.181 C 
ENDBRANCH  16  21
ENDBRANCH  12  13
ENDBRANCH   1  12
TORSDOF 5
ENDMDL
MODEL 4
REMARK VINA RESULT:      -1.4      0.939      1.567
REMARK  5 active torsions:
REMARK  status: ('A' for Active; 'I' for Inactive)
REMARK    1  A    between atoms: C_2  and  C_1 
REMARK    2  A    between atoms: C_8  and  C_2 
REMARK    3  A    between atoms: O_18  and  C_7 
REMARK    4  A    between atoms: C_13  and  C_8 
REMARK    5  A    between atoms: O_20  and  C_11 
ROOT
ATOM      1  C   UNL d   1      32.616  20.440 -22.002  0.00  0.00     0.202 C 
ATOM      2  O   UNL d   1      31.856  20.119 -22.038  0.00  0.00    -0.286 OA
ENDROOT
BRANCH   1   3
ATOM      3  C   UNL d   1      32.746  21.147 -21.597  0.00  0.00     0.117 A 
ATOM      4  C   UNL d   1      32.723  21.158 -20.771  0.00  0.00     0.205 A 
ATOM      5  C   UNL d   1      32.853  21.861 -20.364  0.00  0.00     0.084 A 
ATOM      6  O   UNL d   1      32.571  20.466 -20.347  0.00  0.00    -0.286 OA
ATOM      7  C   UNL d   1      33.005  22.557 -20.780  0.00  0.00     0.202 A 
ATOM      8  C   UNL d   1      33.028  22.549 -21.603  0.00  0.00     0.084 A 
ATOM      9  O   UNL d   1      33.136  23.265 -20.367  0.00  0.00    -0.286 OA
ATOM     10  C   UNL d   1      32.898  21.842 -22.013  0.00  0.00     0.205 A 
ATOM     11  O   UNL d   1      32.922  21.835 -22.836  0.00  0.00    -0.286 OA
ENDBRANCH   1   3
BRANCH   1  12
ATOM     12  C   UNL d   1      33.239  20.054 -22.368  0.00  0.00     0.042 C 
BRANCH  12  13
ATOM     13  C   UNL d   1      33.147  19.285 -22.645  0.00  0.00     0.005 A 
ATOM     14  C   UNL d   1      32.985  19.153 -23.442  0.00  0.00     0.026 A 
ATOM     15  C   UNL d   1      32.892  18.383 -23.719  0.00  0.00     0.116 A 
ATOM     16  C   UNL d   1      32.962  17.745 -23.200  0.00  0.00     0.116 A 
ATOM     17  C   UNL d   1      33.125  17.881 -22.400  0.00  0.00     0.026 A 
ATOM     18  C   UNL d   1      33.216  18.657 -22.129  0.00  0.00     0.002 A 
BRANCH  15  19
ATOM     19  O   UNL d   1      32.729  18.246 -24.522  0.00  0.00    -0.326 OA
ATOM     20  C   UNL d   1      32.993  18.777 -25.093  0.00  0.00     0.181 C 
ENDBRANCH  15  19
BRANCH  16  21
ATOM     21  O   UNL d   1      32.871  16.966 -23.470  0.00  0.00    -0.326 OA
ATOM     22  C   UNL d   1      33.036  16.333 -22.982  0.00  0.00     0.181 C 
ENDBRANCH  16  21
ENDBRANCH  12  13
ENDBRANCH   1  12
TORSDOF 5
ENDMDL
MODEL 5
REMARK VINA RESULT:      -1.1      1.463      4.803
REMARK  5 active torsions:
REMARK  status: ('A' for Active; 'I' for Inactive)
REMARK    1  A    between atoms: C_2  and  C_1 
REMARK    2  A    between atoms: C_8  and  C_2 
REMARK    3  A    between atoms: O_18  and  C_7 
REMARK    4  A    between atoms: C_13  and  C_8 
REMARK    5  A    between atoms: O_20  and  C_11 
ROOT
ATOM      1  C   UNL d   1      32.578  18.833 -23.413  0.00  0.00     0.202 C 
ATOM      2  O   UNL d   1      31.858  19.234 -23.424  0.00  0.00    -0.286 OA
ENDROOT
BRANCH   1   3
ATOM      3  C   UNL d   1      32.630  18.070 -23.723  0.00  0.00     0.117 A 
ATOM      4  C   UNL d   1      32.357  17.918 -24.488  0.00  0.00     0.205 A 
ATOM      5  C   UNL d   1      32.407  17.159 -24.801  0.00  0.00     0.084 A 
ATOM      6  O   UNL d   1      32.031  18.524 -24.944  0.00  0.00    -0.286 OA
ATOM      7  C   UNL d   1      32.731  16.548 -24.351  0.00  0.00     0.202 A 
ATOM      8  C   UNL d   1      33.005  16.696 -23.589  0.00  0.00     0.084 A 
ATOM      9  O   UNL d   1      32.781  15.782 -24.670  0.00  0.00    -0.286 OA
ATOM     10  C   UNL d   1      32.955  17.459 -23.273  0.00  0.00     0.205 A 
ATOM     11  O   UNL d   1      33.228  17.608 -22.511  0.00  0.00    -0.286 OA
ENDBRANCH   1   3
BRANCH   1  12
ATOM     12  C   UNL d   1      33.241  19.193 -23.093  0.00  0.00     0.042 C 
BRANCH  12  13
ATOM     13  C   UNL d   1      33.227  19.994 -22.903  0.00  0.00     0.005 A 
ATOM     14  C   UNL d   1      33.201  20.227 -22.113  0.00  0.00     0.026 A 
ATOM     15  C   UNL d   1      33.187  21.028 -21.923  0.00  0.00     0.116 A 
ATOM     16  C   UNL d   1      33.200  21.596 -22.521  0.00  0.00     0.116 A 
ATOM     17  C   UNL d   1      33.227  21.359 -23.313  0.00  0.00     0.026 A 
ATOM     18  C   UNL d   1      33.241  20.553 -23.497  0.00  0.00     0.002 A 
BRANCH  15  19
ATOM     19  O   UNL d   1      33.160  21.267 -21.127  0.00  0.00    -0.326 OA
ATOM     20  C   UNL d   1      32.945  20.729 -20.542  0.00  0.00     0.181 C 
ENDBRANCH  15  19
BRANCH  16  21
ATOM     21  O   UNL d   1      33.187  22.405 -22.339  0.00  0.00    -0.326 OA
ATOM     22  C   UNL d   1      33.164  22.966 -22.931  0.00  0.00     0.181 C 
ENDBRANCH  16  21
ENDBRANCH  12  13
ENDBRANCH   1  12
TORSDOF 5
ENDMDL
