MODEL 1
REMARK VINA RESULT:      53.8      0.000      0.000
REMARK  6 active torsions:
REMARK  status: ('A' for Active; 'I' for Inactive)
REMARK    1  A    between atoms: C_5  and  N_1 
REMARK    2  A    between atoms: C_2  and  C_4 
REMARK       I    between atoms: N_3  and  C_2 
REMARK    3  A    between atoms: C_7  and  N_3 
REMARK       I    between atoms: C_4  and  N_8 
REMARK    4  A    between atoms: C_10  and  C_5 
REMARK    5  A    between atoms: C_14  and  C_5 
REMARK    6  A    between atoms: N_8  and  C_10 
ROOT
ATOM      1  C   UNL d   1      13.349  13.154  -3.705  0.00  0.00     0.085 C 
ENDROOT
BRANCH   1   2
ATOM      2  N   UNL d   1      13.509  12.807  -2.956  0.00  0.00    -0.302 N 
ATOM      3  C   UNL d   1      14.261  12.862  -2.622  0.00  0.00     0.080 A 
ATOM      4  C   UNL d   1      14.412  12.520  -1.889  0.00  0.00     0.018 A 
ATOM      5  C   UNL d   1      15.169  12.575  -1.553  0.00  0.00     0.002 A 
ATOM      6  C   UNL d   1      13.812  12.124  -1.489  0.00  0.00     0.003 A 
ATOM      7  C   UNL d   1      15.328  12.235  -0.816  0.00  0.00     0.000 A 
ATOM      8  C   UNL d   1      14.719  11.835  -0.416  0.00  0.00     0.000 A 
ATOM      9  C   UNL d   1      13.962  11.780  -0.752  0.00  0.00     0.000 A 
ATOM     10  C   UNL d   1      13.060  12.069  -1.823  0.00  0.00     0.019 A 
ATOM     11  C   UNL d   1      12.907  12.410  -2.557  0.00  0.00     0.080 A 
ENDBRANCH   1   2
BRANCH   1  12
ATOM     12  C   UNL d   1      13.132  13.948  -3.755  0.00  0.00     0.120 C 
BRANCH  12  13
ATOM     13  N   UNL d   1      13.481  14.507  -3.260  0.00  0.00    -0.201 NA
ATOM     14  C   UNL d   1      13.875  15.165  -3.586  0.00  0.00     0.337 C 
ATOM     15  O   UNL d   1      13.915  15.256  -4.407  0.00  0.00    -0.260 OA
BRANCH  14  16
ATOM     16  C   UNL d   1      14.223  15.723  -3.092  0.00  0.00     0.337 C 
ATOM     17  N   UNL d   1      14.584  15.484  -2.384  0.00  0.00    -0.202 NA
ATOM     18  O   UNL d   1      14.216  16.527  -3.300  0.00  0.00    -0.260 OA
BRANCH  17  19
ATOM     19  C   UNL d   1      14.934  16.050  -1.888  0.00  0.00     0.112 A 
ATOM     20  C   UNL d   1      15.010  15.897  -1.081  0.00  0.00     0.160 A 
ATOM     21  C   UNL d   1      15.353  16.448  -0.586  0.00  0.00     0.061 A 
ATOM     22  F   UNL d   1      14.735  15.171  -0.759  0.00  0.00    -0.203 F 
ATOM     23  C   UNL d   1      15.628  17.168  -0.898  0.00  0.00     0.142 A 
ATOM     24  C   UNL d   1      15.552  17.321  -1.705  0.00  0.00     0.031 A 
ATOM     25  F   UNL d   1      15.978  17.729  -0.390  0.00  0.00    -0.204 F 
ATOM     26  C   UNL d   1      15.201  16.755  -2.201  0.00  0.00     0.024 A 
ENDBRANCH  17  19
ENDBRANCH  14  16
ENDBRANCH  12  13
ENDBRANCH   1  12
BRANCH   1  27
ATOM     27  C   UNL d   1      13.412  12.697  -4.386  0.00  0.00     0.037 A 
ATOM     28  C   UNL d   1      14.114  12.694  -4.816  0.00  0.00     0.100 A 
ATOM     29  N   UNL d   1      14.176  12.237  -5.497  0.00  0.00    -0.242 NA
ATOM     30  C   UNL d   1      13.533  11.779  -5.750  0.00  0.00     0.099 A 
ATOM     31  C   UNL d   1      12.831  11.781  -5.321  0.00  0.00     0.021 A 
ATOM     32  C   UNL d   1      12.769  12.239  -4.639  0.00  0.00     0.005 A 
ENDBRANCH   1  27
TORSDOF 6
ENDMDL
