MODEL 1
REMARK VINA RESULT:      -4.3      0.000      0.000
REMARK  6 active torsions:
REMARK  status: ('A' for Active; 'I' for Inactive)
REMARK    1  A    between atoms: C_10  and  C_1 
REMARK    2  A    between atoms: C_4  and  O_8 
REMARK       I    between atoms: N_12  and  C_4 
REMARK    3  A    between atoms: O_8  and  C_13 
REMARK    4  A    between atoms: C_23  and  N_12 
REMARK    5  A    between atoms: C_24  and  N_12 
REMARK    6  A    between atoms: O_22  and  C_19 
ROOT
ATOM      1  C   UNL d   1      56.482  -0.581  32.407  0.00  0.00     0.064 A 
ATOM      2  C   UNL d   1      57.003  -0.102  31.956  0.00  0.00     0.199 A 
ATOM      3  C   UNL d   1      57.382  -0.413  31.297  0.00  0.00     0.062 A 
ATOM      4  C   UNL d   1      56.351  -1.369  32.185  0.00  0.00     0.126 A 
ATOM      5  C   UNL d   1      57.250  -1.210  31.074  0.00  0.00     0.105 A 
ATOM      6  O   UNL d   1      56.736  -1.691  31.513  0.00  0.00    -0.305 OA
ATOM      7  C   UNL d   1      57.633  -1.523  30.408  0.00  0.00     0.050 A 
ATOM      8  C   UNL d   1      57.901   0.054  30.844  0.00  0.00     0.007 A 
ATOM      9  C   UNL d   1      58.146  -1.046  29.968  0.00  0.00     0.107 A 
ATOM     10  O   UNL d   1      57.131   0.682  32.180  0.00  0.00    -0.286 OA
ATOM     11  C   UNL d   1      58.279  -0.262  30.184  0.00  0.00     0.025 A 
ENDROOT
BRANCH   1  12
ATOM     12  C   UNL d   1      56.105  -0.265  33.066  0.00  0.00     0.005 A 
ATOM     13  C   UNL d   1      56.549   0.032  33.695  0.00  0.00     0.002 A 
ATOM     14  C   UNL d   1      56.169   0.348  34.354  0.00  0.00     0.024 A 
ATOM     15  C   UNL d   1      55.348   0.367  34.385  0.00  0.00     0.094 A 
ATOM     16  C   UNL d   1      54.901   0.068  33.753  0.00  0.00     0.024 A 
ATOM     17  C   UNL d   1      55.281  -0.246  33.097  0.00  0.00     0.002 A 
BRANCH  15  18
ATOM     18  O   UNL d   1      54.966   0.681  35.041  0.00  0.00    -0.328 OA
ATOM     19  C   UNL d   1      55.269   0.539  35.797  0.00  0.00     0.181 C 
ENDBRANCH  15  18
ENDBRANCH   1  12
BRANCH   9  20
ATOM     20  O   UNL d   1      58.524  -1.362  29.307  0.00  0.00    -0.259 OA
BRANCH  20  21
ATOM     21  C   UNL d   1      59.261  -1.719  29.390  0.00  0.00     0.377 C 
ATOM     22  N   UNL d   1      59.424  -2.419  28.988  0.00  0.00    -0.252 N 
ATOM     23  O   UNL d   1      59.834  -1.378  29.874  0.00  0.00    -0.237 OA
BRANCH  22  24
ATOM     24  C   UNL d   1      60.163  -2.780  29.069  0.00  0.00     0.085 C 
ATOM     25  C   UNL d   1      60.761  -2.621  28.525  0.00  0.00     0.021 C 
ENDBRANCH  22  24
BRANCH  22  26
ATOM     26  C   UNL d   1      58.850  -2.761  28.503  0.00  0.00     0.085 C 
ATOM     27  C   UNL d   1      58.697  -3.570  28.551  0.00  0.00     0.021 C 
ENDBRANCH  22  26
ENDBRANCH  20  21
ENDBRANCH   9  20
TORSDOF 6
ENDMDL
