MODEL 1
REMARK VINA RESULT:      -1.0      0.000      0.000
REMARK  2 active torsions:
REMARK  status: ('A' for Active; 'I' for Inactive)
REMARK    1  A    between atoms: C_5  and  C_1 
REMARK       I    between atoms: N_7  and  C_5 
REMARK    2  A    between atoms: C_9  and  N_7 
ROOT
ATOM      1  C   UNL d   1      57.823   0.076  29.887  0.00  0.00     0.161 A 
ATOM      2  C   UNL d   1      57.776  -0.720  29.950  0.00  0.00     0.072 A 
ATOM      3  O   UNL d   1      57.612   0.579  30.552  0.00  0.00    -0.302 OA
ATOM      4  C   UNL d   1      57.527  -1.078  30.641  0.00  0.00     0.200 A 
ATOM      5  C   UNL d   1      57.317  -0.613  31.300  0.00  0.00     0.062 A 
ATOM      6  C   UNL d   1      57.362   0.195  31.245  0.00  0.00     0.103 A 
ATOM      7  O   UNL d   1      57.489  -1.912  30.672  0.00  0.00    -0.286 OA
ATOM      8  C   UNL d   1      57.061  -0.965  32.013  0.00  0.00     0.005 A 
ATOM      9  C   UNL d   1      57.148   0.668  31.914  0.00  0.00     0.025 A 
ATOM     10  C   UNL d   1      56.855  -0.486  32.659  0.00  0.00     0.000 A 
ATOM     11  C   UNL d   1      56.900   0.310  32.606  0.00  0.00     0.002 A 
ENDROOT
BRANCH   1  12
ATOM     12  C   UNL d   1      58.090   0.406  29.140  0.00  0.00     0.302 C 
ATOM     13  N   UNL d   1      58.893   0.530  28.999  0.00  0.00    -0.206 NA
ATOM     14  O   UNL d   1      57.519   0.597  28.561  0.00  0.00    -0.263 OA
BRANCH  13  15
ATOM     15  C   UNL d   1      59.436   0.336  29.581  0.00  0.00     0.085 A 
ATOM     16  C   UNL d   1      60.022  -0.225  29.424  0.00  0.00     0.018 A 
ATOM     17  C   UNL d   1      60.570  -0.431  29.990  0.00  0.00     0.002 A 
ATOM     18  C   UNL d   1      60.052  -0.593  28.657  0.00  0.00     0.002 C 
ATOM     19  C   UNL d   1      60.539  -0.074  30.728  0.00  0.00     0.000 A 
ATOM     20  C   UNL d   1      59.957   0.486  30.893  0.00  0.00     0.002 A 
ATOM     21  C   UNL d   1      61.101  -0.277  31.327  0.00  0.00     0.000 C 
ATOM     22  C   UNL d   1      59.413   0.682  30.311  0.00  0.00     0.019 A 
ENDBRANCH  13  15
ENDBRANCH   1  12
TORSDOF 2
ENDMDL
MODEL 2
REMARK VINA RESULT:      -1.0      1.357      2.947
REMARK  2 active torsions:
REMARK  status: ('A' for Active; 'I' for Inactive)
REMARK    1  A    between atoms: C_5  and  C_1 
REMARK       I    between atoms: N_7  and  C_5 
REMARK    2  A    between atoms: C_9  and  N_7 
ROOT
ATOM      1  C   UNL d   1      58.734  -0.766  29.109  0.00  0.00     0.161 A 
ATOM      2  C   UNL d   1      58.468  -1.328  29.614  0.00  0.00     0.072 A 
ATOM      3  O   UNL d   1      59.481  -0.871  28.696  0.00  0.00    -0.302 OA
ATOM      4  C   UNL d   1      58.894  -2.012  29.752  0.00  0.00     0.200 A 
ATOM      5  C   UNL d   1      59.621  -2.136  29.364  0.00  0.00     0.062 A 
ATOM      6  C   UNL d   1      59.898  -1.573  28.851  0.00  0.00     0.103 A 
ATOM      7  O   UNL d   1      58.587  -2.577  30.285  0.00  0.00    -0.286 OA
ATOM      8  C   UNL d   1      60.067  -2.831  29.495  0.00  0.00     0.005 A 
ATOM      9  C   UNL d   1      60.636  -1.700  28.456  0.00  0.00     0.025 A 
ATOM     10  C   UNL d   1      60.788  -2.938  29.100  0.00  0.00     0.000 A 
ATOM     11  C   UNL d   1      61.063  -2.383  28.594  0.00  0.00     0.002 A 
ENDROOT
BRANCH   1  12
ATOM     12  C   UNL d   1      58.252  -0.066  28.997  0.00  0.00     0.302 C 
ATOM     13  N   UNL d   1      58.413   0.627  29.416  0.00  0.00    -0.206 NA
ATOM     14  O   UNL d   1      57.617  -0.100  28.455  0.00  0.00    -0.263 OA
BRANCH  13  15
ATOM     15  C   UNL d   1      59.040   0.638  29.943  0.00  0.00     0.085 A 
ATOM     16  C   UNL d   1      58.894   0.666  30.755  0.00  0.00     0.018 A 
ATOM     17  C   UNL d   1      59.505   0.678  31.293  0.00  0.00     0.002 A 
ATOM     18  C   UNL d   1      58.089   0.682  31.033  0.00  0.00     0.002 C 
ATOM     19  C   UNL d   1      60.280   0.663  31.022  0.00  0.00     0.000 A 
ATOM     20  C   UNL d   1      60.434   0.635  30.212  0.00  0.00     0.002 A 
ATOM     21  C   UNL d   1      60.925   0.675  31.568  0.00  0.00     0.000 C 
ATOM     22  C   UNL d   1      59.807   0.624  29.685  0.00  0.00     0.019 A 
ENDBRANCH  13  15
ENDBRANCH   1  12
TORSDOF 2
ENDMDL
MODEL 3
REMARK VINA RESULT:       1.4      1.776      3.103
REMARK  2 active torsions:
REMARK  status: ('A' for Active; 'I' for Inactive)
REMARK    1  A    between atoms: C_5  and  C_1 
REMARK       I    between atoms: N_7  and  C_5 
REMARK    2  A    between atoms: C_9  and  N_7 
ROOT
ATOM      1  C   UNL d   1      59.937  -0.603  29.072  0.00  0.00     0.161 A 
ATOM      2  C   UNL d   1      59.185  -0.534  28.806  0.00  0.00     0.072 A 
ATOM      3  O   UNL d   1      60.252  -1.372  29.295  0.00  0.00    -0.302 OA
ATOM      4  C   UNL d   1      58.698  -1.186  28.738  0.00  0.00     0.200 A 
ATOM      5  C   UNL d   1      58.979  -1.942  28.947  0.00  0.00     0.062 A 
ATOM      6  C   UNL d   1      59.739  -2.021  29.217  0.00  0.00     0.103 A 
ATOM      7  O   UNL d   1      57.918  -1.079  28.457  0.00  0.00    -0.286 OA
ATOM      8  C   UNL d   1      58.491  -2.618  28.883  0.00  0.00     0.005 A 
ATOM      9  C   UNL d   1      60.025  -2.789  29.430  0.00  0.00     0.025 A 
ATOM     10  C   UNL d   1      58.788  -3.362  29.095  0.00  0.00     0.000 A 
ATOM     11  C   UNL d   1      59.538  -3.442  29.362  0.00  0.00     0.002 A 
ENDROOT
BRANCH   1  12
ATOM     12  C   UNL d   1      60.412   0.110  29.127  0.00  0.00     0.302 C 
ATOM     13  N   UNL d   1      60.247   0.682  29.699  0.00  0.00    -0.206 NA
ATOM     14  O   UNL d   1      61.043   0.213  28.588  0.00  0.00    -0.263 OA
BRANCH  13  15
ATOM     15  C   UNL d   1      59.624   0.561  30.216  0.00  0.00     0.085 A 
ATOM     16  C   UNL d   1      59.773   0.461  31.022  0.00  0.00     0.018 A 
ATOM     17  C   UNL d   1      59.166   0.340  31.551  0.00  0.00     0.002 A 
ATOM     18  C   UNL d   1      60.576   0.485  31.303  0.00  0.00     0.002 C 
ATOM     19  C   UNL d   1      58.393   0.318  31.278  0.00  0.00     0.000 A 
ATOM     20  C   UNL d   1      58.235   0.418  30.474  0.00  0.00     0.002 A 
ATOM     21  C   UNL d   1      57.751   0.194  31.814  0.00  0.00     0.000 C 
ATOM     22  C   UNL d   1      58.858   0.538  29.956  0.00  0.00     0.019 A 
ENDBRANCH  13  15
ENDBRANCH   1  12
TORSDOF 2
ENDMDL
