MODEL 1
REMARK VINA RESULT:      64.1      0.000      0.000
REMARK  8 active torsions:
REMARK  status: ('A' for Active; 'I' for Inactive)
REMARK    1  A    between atoms: N_5  and  C_1 
REMARK    2  A    between atoms: N_7  and  C_1 
REMARK    3  A    between atoms: N_2  and  C_3 
REMARK    4  A    between atoms: C_3  and  C_4 
REMARK    5  A    between atoms: C_6  and  C_3 
REMARK    6  A    between atoms: C_4  and  N_5 
REMARK    7  A    between atoms: C_8  and  N_7 
REMARK    8  A    between atoms: C_25  and  N_10 
ROOT
ATOM      1  C   UNL d   1      45.986 -18.308  41.738  0.00  0.00     0.088 C 
ENDROOT
BRANCH   1   2
ATOM      2  N   UNL d   1      45.925 -17.698  42.294  0.00  0.00    -0.300 N 
ATOM      3  C   UNL d   1      46.537 -17.153  42.375  0.00  0.00     0.100 A 
ATOM      4  C   UNL d   1      46.477 -16.549  42.925  0.00  0.00     0.100 A 
ATOM      5  N   UNL d   1      45.806 -16.477  43.403  0.00  0.00    -0.300 N 
ATOM      6  C   UNL d   1      45.190 -17.027  43.320  0.00  0.00     0.100 A 
ATOM      7  C   UNL d   1      45.243 -17.639  42.767  0.00  0.00     0.100 A 
BRANCH   5   8
ATOM      8  C   UNL d   1      45.749 -15.871  43.953  0.00  0.00     0.080 C 
ATOM      9  C   UNL d   1      45.584 -16.051  44.745  0.00  0.00     0.021 C 
ENDBRANCH   5   8
ENDBRANCH   1   2
BRANCH   1  10
ATOM     10  C   UNL d   1      46.029 -18.135  40.935  0.00  0.00     0.100 C 
ATOM     11  C   UNL d   1      46.626 -18.458  40.481  0.00  0.00     0.022 C 
BRANCH  10  12
ATOM     12  N   UNL d   1      45.470 -17.637  40.599  0.00  0.00    -0.216 NA
BRANCH  12  13
ATOM     13  C   UNL d   1      45.556 -17.391  39.813  0.00  0.00     0.221 C 
ATOM     14  S   UNL d   1      46.290 -17.451  39.449  0.00  0.00    -0.037 SA
BRANCH  13  15
ATOM     15  N   UNL d   1      44.911 -17.088  39.405  0.00  0.00    -0.217 NA
BRANCH  15  16
ATOM     16  C   UNL d   1      45.020 -16.643  38.720  0.00  0.00     0.084 A 
ATOM     17  C   UNL d   1      44.414 -16.580  38.173  0.00  0.00     0.018 A 
ATOM     18  C   UNL d   1      44.516 -16.141  37.492  0.00  0.00     0.002 A 
ATOM     19  C   UNL d   1      43.694 -16.969  38.316  0.00  0.00     0.002 C 
ATOM     20  C   UNL d   1      45.238 -15.754  37.354  0.00  0.00     0.000 A 
ATOM     21  C   UNL d   1      45.856 -15.817  37.911  0.00  0.00     0.002 A 
ATOM     22  C   UNL d   1      45.743 -16.261  38.590  0.00  0.00     0.019 A 
ATOM     23  C   UNL d   1      46.572 -15.436  37.778  0.00  0.00     0.000 C 
ENDBRANCH  15  16
ENDBRANCH  13  15
ENDBRANCH  12  13
ENDBRANCH  10  12
ENDBRANCH   1  10
BRANCH   1  24
ATOM     24  C   UNL d   1      46.003 -19.090  41.992  0.00  0.00     0.047 A 
ATOM     25  S   UNL d   1      46.647 -19.607  41.951  0.00  0.00    -0.085 SA
ATOM     26  C   UNL d   1      46.417 -20.330  42.268  0.00  0.00     0.035 A 
ATOM     27  C   UNL d   1      45.630 -20.274  42.511  0.00  0.00     0.007 A 
ATOM     28  C   UNL d   1      45.368 -19.503  42.341  0.00  0.00     0.009 A 
ENDBRANCH   1  24
TORSDOF 8
ENDMDL
MODEL 2
REMARK VINA RESULT:      65.6      1.951      5.441
REMARK  8 active torsions:
REMARK  status: ('A' for Active; 'I' for Inactive)
REMARK    1  A    between atoms: N_5  and  C_1 
REMARK    2  A    between atoms: N_7  and  C_1 
REMARK    3  A    between atoms: N_2  and  C_3 
REMARK    4  A    between atoms: C_3  and  C_4 
REMARK    5  A    between atoms: C_6  and  C_3 
REMARK    6  A    between atoms: C_4  and  N_5 
REMARK    7  A    between atoms: C_8  and  N_7 
REMARK    8  A    between atoms: C_25  and  N_10 
ROOT
ATOM      1  C   UNL d   1      44.337 -15.994  37.324  0.00  0.00     0.088 C 
ENDROOT
BRANCH   1   2
ATOM      2  N   UNL d   1      44.913 -15.423  37.158  0.00  0.00    -0.300 N 
ATOM      3  C   UNL d   1      44.761 -14.629  37.315  0.00  0.00     0.100 A 
ATOM      4  C   UNL d   1      45.331 -14.063  37.152  0.00  0.00     0.100 A 
ATOM      5  N   UNL d   1      46.061 -14.279  36.829  0.00  0.00    -0.300 N 
ATOM      6  C   UNL d   1      46.213 -15.079  36.672  0.00  0.00     0.100 A 
ATOM      7  C   UNL d   1      45.643 -15.656  36.834  0.00  0.00     0.100 A 
BRANCH   5   8
ATOM      8  C   UNL d   1      46.629 -13.709  36.666  0.00  0.00     0.080 C 
ATOM      9  C   UNL d   1      46.406 -12.914  36.610  0.00  0.00     0.021 C 
ENDBRANCH   5   8
ENDBRANCH   1   2
BRANCH   1  10
ATOM     10  C   UNL d   1      44.539 -16.681  37.728  0.00  0.00     0.100 C 
ATOM     11  C   UNL d   1      44.525 -17.400  37.340  0.00  0.00     0.022 C 
BRANCH  10  12
ATOM     12  N   UNL d   1      44.752 -16.636  38.520  0.00  0.00    -0.216 NA
BRANCH  12  13
ATOM     13  C   UNL d   1      44.971 -17.322  38.927  0.00  0.00     0.221 C 
ATOM     14  S   UNL d   1      45.703 -17.664  38.780  0.00  0.00    -0.037 SA
BRANCH  13  15
ATOM     15  N   UNL d   1      44.457 -17.655  39.473  0.00  0.00    -0.217 NA
BRANCH  15  16
ATOM     16  C   UNL d   1      44.713 -17.833  40.236  0.00  0.00     0.084 A 
ATOM     17  C   UNL d   1      44.170 -18.032  40.815  0.00  0.00     0.018 A 
ATOM     18  C   UNL d   1      44.418 -18.210  41.573  0.00  0.00     0.002 A 
ATOM     19  C   UNL d   1      43.361 -18.052  40.625  0.00  0.00     0.002 C 
ATOM     20  C   UNL d   1      45.228 -18.188  41.758  0.00  0.00     0.000 A 
ATOM     21  C   UNL d   1      45.783 -17.986  41.169  0.00  0.00     0.002 A 
ATOM     22  C   UNL d   1      45.522 -17.810  40.412  0.00  0.00     0.019 A 
ATOM     23  C   UNL d   1      46.585 -17.964  41.348  0.00  0.00     0.000 C 
ENDBRANCH  15  16
ENDBRANCH  13  15
ENDBRANCH  12  13
ENDBRANCH  10  12
ENDBRANCH   1  10
BRANCH   1  24
ATOM     24  C   UNL d   1      43.561 -15.871  37.081  0.00  0.00     0.047 A 
ATOM     25  S   UNL d   1      43.120 -15.178  37.172  0.00  0.00    -0.085 SA
ATOM     26  C   UNL d   1      42.374 -15.302  36.850  0.00  0.00     0.035 A 
ATOM     27  C   UNL d   1      42.339 -16.072  36.554  0.00  0.00     0.007 A 
ATOM     28  C   UNL d   1      43.076 -16.431  36.696  0.00  0.00     0.009 A 
ENDBRANCH   1  24
TORSDOF 8
ENDMDL
