MODEL 1
REMARK VINA RESULT:      -5.9      0.000      0.000
REMARK  4 active torsions:
REMARK  status: ('A' for Active; 'I' for Inactive)
REMARK    1  A    between atoms: N_4  and  C_1 
REMARK    2  A    between atoms: C_11  and  C_3 
REMARK       I    between atoms: C_6  and  N_4 
REMARK    3  A    between atoms: C_8  and  C_6 
REMARK    4  A    between atoms: C_9  and  C_8 
ROOT
ATOM      1  C   UNL d   1     -41.247-122.791 -51.807  0.00  0.00     0.197 A 
ATOM      2  N   UNL d   1     -41.495-123.017 -52.555  0.00  0.00    -0.221 NA
ATOM      3  C   UNL d   1     -41.535-122.338 -53.027  0.00  0.00     0.092 A 
ATOM      4  S   UNL d   1     -41.130-121.977 -51.807  0.00  0.00    -0.046 SA
ATOM      5  C   UNL d   1     -41.307-121.690 -52.558  0.00  0.00     0.058 A 
ENDROOT
BRANCH   1   6
ATOM      6  N   UNL d   1     -41.129-123.290 -51.156  0.00  0.00    -0.183 NA
ATOM      7  C   UNL d   1     -41.702-123.322 -50.562  0.00  0.00     0.281 C 
ATOM      8  O   UNL d   1     -42.379-122.861 -50.621  0.00  0.00    -0.265 OA
BRANCH   7   9
ATOM      9  C   UNL d   1     -41.594-123.817 -49.911  0.00  0.00     0.069 C 
BRANCH   9  10
ATOM     10  C   UNL d   1     -41.974-123.603 -49.214  0.00  0.00     0.034 A 
ATOM     11  S   UNL d   1     -42.747-123.790 -49.001  0.00  0.00    -0.086 SA
ATOM     12  C   UNL d   1     -42.899-123.464 -48.257  0.00  0.00     0.035 A 
ATOM     13  C   UNL d   1     -42.212-123.072 -48.010  0.00  0.00     0.007 A 
ATOM     14  C   UNL d   1     -41.641-123.158 -48.601  0.00  0.00     0.007 A 
ENDBRANCH   9  10
ENDBRANCH   7   9
ENDBRANCH   1   6
BRANCH   3  15
ATOM     15  C   UNL d   1     -41.758-122.302 -53.817  0.00  0.00     0.037 A 
ATOM     16  C   UNL d   1     -42.372-121.799 -54.032  0.00  0.00     0.100 A 
ATOM     17  N   UNL d   1     -42.601-121.757 -54.821  0.00  0.00    -0.242 NA
ATOM     18  C   UNL d   1     -42.219-122.217 -55.391  0.00  0.00     0.099 A 
ATOM     19  C   UNL d   1     -41.611-122.713 -55.164  0.00  0.00     0.021 A 
ATOM     20  C   UNL d   1     -41.373-122.762 -54.372  0.00  0.00     0.005 A 
ENDBRANCH   3  15
TORSDOF 4
ENDMDL
MODEL 2
REMARK VINA RESULT:      -5.4      1.343      4.874
REMARK  4 active torsions:
REMARK  status: ('A' for Active; 'I' for Inactive)
REMARK    1  A    between atoms: N_4  and  C_1 
REMARK    2  A    between atoms: C_11  and  C_3 
REMARK       I    between atoms: C_6  and  N_4 
REMARK    3  A    between atoms: C_8  and  C_6 
REMARK    4  A    between atoms: C_9  and  C_8 
ROOT
ATOM      1  C   UNL d   1     -41.273-122.693 -51.962  0.00  0.00     0.197 A 
ATOM      2  N   UNL d   1     -41.590-123.121 -51.338  0.00  0.00    -0.221 NA
ATOM      3  C   UNL d   1     -41.643-122.618 -50.683  0.00  0.00     0.092 A 
ATOM      4  S   UNL d   1     -41.128-121.926 -51.702  0.00  0.00    -0.046 SA
ATOM      5  C   UNL d   1     -41.354-121.872 -50.912  0.00  0.00     0.058 A 
ENDROOT
BRANCH   1   6
ATOM      6  N   UNL d   1     -41.122-122.976 -52.725  0.00  0.00    -0.183 NA
ATOM      7  C   UNL d   1     -41.636-122.776 -53.341  0.00  0.00     0.281 C 
ATOM      8  O   UNL d   1     -42.288-122.300 -53.191  0.00  0.00    -0.265 OA
BRANCH   7   9
ATOM      9  C   UNL d   1     -41.493-123.053 -54.104  0.00  0.00     0.069 C 
BRANCH   9  10
ATOM     10  C   UNL d   1     -41.788-122.602 -54.725  0.00  0.00     0.034 A 
ATOM     11  S   UNL d   1     -41.373-122.036 -55.157  0.00  0.00    -0.086 SA
ATOM     12  C   UNL d   1     -41.882-121.719 -55.726  0.00  0.00     0.035 A 
ATOM     13  C   UNL d   1     -42.616-122.095 -55.643  0.00  0.00     0.007 A 
ATOM     14  C   UNL d   1     -42.557-122.640 -55.025  0.00  0.00     0.007 A 
ENDBRANCH   9  10
ENDBRANCH   7   9
ENDBRANCH   1   6
BRANCH   3  15
ATOM     15  C   UNL d   1     -41.929-122.811 -49.937  0.00  0.00     0.037 A 
ATOM     16  C   UNL d   1     -41.426-123.188 -49.407  0.00  0.00     0.100 A 
ATOM     17  N   UNL d   1     -41.704-123.385 -48.659  0.00  0.00    -0.242 NA
ATOM     18  C   UNL d   1     -42.481-123.206 -48.442  0.00  0.00     0.099 A 
ATOM     19  C   UNL d   1     -42.970-122.831 -48.979  0.00  0.00     0.021 A 
ATOM     20  C   UNL d   1     -42.699-122.629 -49.735  0.00  0.00     0.005 A 
ENDBRANCH   3  15
TORSDOF 4
ENDMDL
MODEL 3
REMARK VINA RESULT:      -4.3      0.899      1.052
REMARK  4 active torsions:
REMARK  status: ('A' for Active; 'I' for Inactive)
REMARK    1  A    between atoms: N_4  and  C_1 
REMARK    2  A    between atoms: C_11  and  C_3 
REMARK       I    between atoms: C_6  and  N_4 
REMARK    3  A    between atoms: C_8  and  C_6 
REMARK    4  A    between atoms: C_9  and  C_8 
ROOT
ATOM      1  C   UNL d   1     -41.745-122.276 -52.113  0.00  0.00     0.197 A 
ATOM      2  N   UNL d   1     -42.005-121.990 -52.835  0.00  0.00    -0.221 NA
ATOM      3  C   UNL d   1     -41.662-122.450 -53.432  0.00  0.00     0.092 A 
ATOM      4  S   UNL d   1     -41.242-122.912 -52.252  0.00  0.00    -0.046 SA
ATOM      5  C   UNL d   1     -41.187-123.025 -53.066  0.00  0.00     0.058 A 
ENDROOT
BRANCH   1   6
ATOM      6  N   UNL d   1     -41.949-121.983 -51.366  0.00  0.00    -0.183 NA
ATOM      7  C   UNL d   1     -42.152-122.511 -50.764  0.00  0.00     0.281 C 
ATOM      8  O   UNL d   1     -42.150-123.319 -50.911  0.00  0.00    -0.265 OA
BRANCH   7   9
ATOM      9  C   UNL d   1     -42.356-122.228 -50.017  0.00  0.00     0.069 C 
BRANCH   9  10
ATOM     10  C   UNL d   1     -42.538-122.788 -49.443  0.00  0.00     0.034 A 
ATOM     11  S   UNL d   1     -42.002-123.179 -48.955  0.00  0.00    -0.086 SA
ATOM     12  C   UNL d   1     -42.425-123.692 -48.463  0.00  0.00     0.035 A 
ATOM     13  C   UNL d   1     -43.228-123.614 -48.652  0.00  0.00     0.007 A 
ATOM     14  C   UNL d   1     -43.297-123.056 -49.257  0.00  0.00     0.007 A 
ENDBRANCH   9  10
ENDBRANCH   7   9
ENDBRANCH   1   6
BRANCH   3  15
ATOM     15  C   UNL d   1     -41.768-122.361 -54.242  0.00  0.00     0.037 A 
ATOM     16  C   UNL d   1     -42.529-122.408 -54.550  0.00  0.00     0.100 A 
ATOM     17  N   UNL d   1     -42.642-122.320 -55.359  0.00  0.00    -0.242 NA
ATOM     18  C   UNL d   1     -41.998-122.185 -55.859  0.00  0.00     0.099 A 
ATOM     19  C   UNL d   1     -41.247-122.140 -55.540  0.00  0.00     0.021 A 
ATOM     20  C   UNL d   1     -41.123-122.228 -54.725  0.00  0.00     0.005 A 
ENDBRANCH   3  15
TORSDOF 4
ENDMDL
