MODEL 1
REMARK VINA RESULT:      -0.9      0.000      0.000
REMARK  5 active torsions:
REMARK  status: ('A' for Active; 'I' for Inactive)
REMARK    1  A    between atoms: S_10  and  C_5 
REMARK    2  A    between atoms: C_14  and  N_9 
REMARK    3  A    between atoms: C_17  and  S_10 
REMARK    4  A    between atoms: C_15  and  C_14 
REMARK    5  A    between atoms: C_19  and  C_17 
ROOT
ATOM      1  C   UNL d   1      33.222  21.585 -23.747  0.00  0.00     0.174 A 
ATOM      2  N   UNL d   1      33.226  20.787 -23.909  0.00  0.00    -0.203 NA
ATOM      3  C   UNL d   1      33.220  21.677 -22.927  0.00  0.00     0.159 A 
ATOM      4  N   UNL d   1      33.221  22.249 -24.225  0.00  0.00    -0.239 N 
ATOM      5  C   UNL d   1      33.226  20.390 -23.185  0.00  0.00     0.181 A 
ATOM      6  C   UNL d   1      33.217  23.026 -23.910  0.00  0.00     0.358 A 
ATOM      7  N   UNL d   1      33.215  23.118 -23.090  0.00  0.00    -0.152 NA
ATOM      8  C   UNL d   1      33.216  22.433 -22.585  0.00  0.00     0.302 A 
ATOM      9  N   UNL d   1      33.222  20.881 -22.519  0.00  0.00    -0.279 N 
ATOM     10  O   UNL d   1      33.215  23.701 -24.388  0.00  0.00    -0.244 OA
ATOM     11  O   UNL d   1      33.214  22.526 -21.765  0.00  0.00    -0.263 OA
ATOM     12  C   UNL d   1      33.223  22.156 -25.044  0.00  0.00     0.105 C 
ENDROOT
BRANCH   5  13
ATOM     13  S   UNL d   1      33.229  19.584 -23.308  0.00  0.00    -0.049 SA
BRANCH  13  14
ATOM     14  C   UNL d   1      32.957  19.083 -23.902  0.00  0.00     0.038 C 
BRANCH  14  15
ATOM     15  C   UNL d   1      32.756  18.303 -23.724  0.00  0.00     0.007 A 
ATOM     16  C   UNL d   1      33.150  17.902 -23.122  0.00  0.00     0.003 A 
ATOM     17  C   UNL d   1      32.952  17.126 -22.942  0.00  0.00     0.030 A 
ATOM     18  C   UNL d   1      32.353  16.742 -23.369  0.00  0.00     0.140 A 
ATOM     19  C   UNL d   1      31.960  17.144 -23.971  0.00  0.00     0.030 A 
ATOM     20  F   UNL d   1      32.152  15.962 -23.192  0.00  0.00    -0.204 F 
ATOM     21  C   UNL d   1      32.162  17.924 -24.149  0.00  0.00     0.003 A 
ENDBRANCH  14  15
ENDBRANCH  13  14
ENDBRANCH   5  13
BRANCH   9  22
ATOM     22  C   UNL d   1      33.221  20.706 -21.719  0.00  0.00     0.082 C 
BRANCH  22  23
ATOM     23  C   UNL d   1      32.507  20.522 -21.348  0.00  0.00     0.019 C 
ATOM     24  C   UNL d   1      32.494  20.345 -20.545  0.00  0.00     0.002 C 
ENDBRANCH  22  23
ENDBRANCH   9  22
TORSDOF 5
ENDMDL
MODEL 2
REMARK VINA RESULT:       0.5      3.401      5.102
REMARK  5 active torsions:
REMARK  status: ('A' for Active; 'I' for Inactive)
REMARK    1  A    between atoms: S_10  and  C_5 
REMARK    2  A    between atoms: C_14  and  N_9 
REMARK    3  A    between atoms: C_17  and  S_10 
REMARK    4  A    between atoms: C_15  and  C_14 
REMARK    5  A    between atoms: C_19  and  C_17 
ROOT
ATOM      1  C   UNL d   1      30.589  17.543 -24.317  0.00  0.00     0.174 A 
ATOM      2  N   UNL d   1      31.130  18.043 -23.970  0.00  0.00    -0.203 NA
ATOM      3  C   UNL d   1      30.966  16.824 -24.463  0.00  0.00     0.159 A 
ATOM      4  N   UNL d   1      29.803  17.632 -24.525  0.00  0.00    -0.239 N 
ATOM      5  C   UNL d   1      31.840  17.628 -23.904  0.00  0.00     0.181 A 
ATOM      6  C   UNL d   1      29.363  17.015 -24.883  0.00  0.00     0.358 A 
ATOM      7  N   UNL d   1      29.740  16.296 -25.029  0.00  0.00    -0.152 NA
ATOM      8  C   UNL d   1      30.557  16.194 -24.817  0.00  0.00     0.302 A 
ATOM      9  N   UNL d   1      31.818  16.852 -24.193  0.00  0.00    -0.279 N 
ATOM     10  O   UNL d   1      28.567  17.100 -25.095  0.00  0.00    -0.244 OA
ATOM     11  O   UNL d   1      30.934  15.475 -24.963  0.00  0.00    -0.263 OA
ATOM     12  C   UNL d   1      29.426  18.351 -24.379  0.00  0.00     0.105 C 
ENDROOT
BRANCH   5  13
ATOM     13  S   UNL d   1      32.409  18.099 -23.560  0.00  0.00    -0.049 SA
BRANCH  13  14
ATOM     14  C   UNL d   1      32.852  18.751 -23.800  0.00  0.00     0.038 C 
BRANCH  14  15
ATOM     15  C   UNL d   1      32.949  19.394 -23.294  0.00  0.00     0.007 A 
ATOM     16  C   UNL d   1      32.947  19.281 -22.478  0.00  0.00     0.003 A 
ATOM     17  C   UNL d   1      33.043  19.920 -21.971  0.00  0.00     0.030 A 
ATOM     18  C   UNL d   1      33.144  20.682 -22.281  0.00  0.00     0.140 A 
ATOM     19  C   UNL d   1      33.146  20.794 -23.097  0.00  0.00     0.030 A 
ATOM     20  F   UNL d   1      33.241  21.326 -21.775  0.00  0.00    -0.204 F 
ATOM     21  C   UNL d   1      33.049  20.150 -23.603  0.00  0.00     0.003 A 
ENDBRANCH  14  15
ENDBRANCH  13  14
ENDBRANCH   5  13
BRANCH   9  22
ATOM     22  C   UNL d   1      32.395  16.273 -24.227  0.00  0.00     0.082 C 
BRANCH  22  23
ATOM     23  C   UNL d   1      32.918  16.186 -23.594  0.00  0.00     0.019 C 
ATOM     24  C   UNL d   1      33.009  15.453 -23.233  0.00  0.00     0.002 C 
ENDBRANCH  22  23
ENDBRANCH   9  22
TORSDOF 5
ENDMDL
