MODEL 1
REMARK VINA RESULT:      -3.8      0.000      0.000
REMARK  7 active torsions:
REMARK  status: ('A' for Active; 'I' for Inactive)
REMARK    1  A    between atoms: C_11  and  C_1 
REMARK    2  A    between atoms: C_15  and  N_3 
REMARK    3  A    between atoms: C_7  and  S_12 
REMARK    4  A    between atoms: C_13  and  C_11 
REMARK    5  A    between atoms: S_12  and  C_13 
REMARK    6  A    between atoms: C_20  and  C_15 
REMARK    7  A    between atoms: O_19  and  C_20 
ROOT
ATOM      1  C   UNL d   1     -42.115-122.543 -50.700  0.00  0.00     0.057 A 
ATOM      2  C   UNL d   1     -41.846-123.077 -50.144  0.00  0.00     0.067 A 
ATOM      3  N   UNL d   1     -42.436-123.137 -49.579  0.00  0.00    -0.303 N 
ATOM      4  C   UNL d   1     -42.850-122.287 -50.477  0.00  0.00     0.022 A 
ATOM      5  C   UNL d   1     -43.038-122.654 -49.793  0.00  0.00     0.064 A 
ATOM      6  C   UNL d   1     -41.124-123.473 -50.153  0.00  0.00     0.019 C 
ATOM      7  C   UNL d   1     -43.759-122.547 -49.366  0.00  0.00     0.019 C 
ENDROOT
BRANCH   1   8
ATOM      8  C   UNL d   1     -41.694-122.308 -51.382  0.00  0.00     0.203 C 
ATOM      9  O   UNL d   1     -41.229-121.631 -51.351  0.00  0.00    -0.286 OA
BRANCH   8  10
ATOM     10  C   UNL d   1     -41.743-122.746 -52.075  0.00  0.00     0.079 C 
BRANCH  10  11
ATOM     11  S   UNL d   1     -41.706-122.371 -52.811  0.00  0.00    -0.056 SA
BRANCH  11  12
ATOM     12  C   UNL d   1     -41.700-122.367 -53.643  0.00  0.00     0.164 A 
ATOM     13  S   UNL d   1     -42.267-121.988 -54.116  0.00  0.00    -0.039 SA
ATOM     14  C   UNL d   1     -42.054-122.122 -54.916  0.00  0.00     0.134 A 
ATOM     15  C   UNL d   1     -42.468-121.842 -55.585  0.00  0.00     0.030 C 
ATOM     16  N   UNL d   1     -41.357-122.584 -54.926  0.00  0.00    -0.140 NA
ATOM     17  N   UNL d   1     -41.145-122.731 -54.130  0.00  0.00    -0.134 NA
ENDBRANCH  11  12
ENDBRANCH  10  11
ENDBRANCH   8  10
ENDBRANCH   1   8
BRANCH   3  18
ATOM     18  C   UNL d   1     -42.439-123.614 -48.886  0.00  0.00     0.107 C 
BRANCH  18  19
ATOM     19  C   UNL d   1     -41.995-123.366 -48.225  0.00  0.00     0.135 C 
BRANCH  19  20
ATOM     20  O   UNL d   1     -42.010-123.781 -47.531  0.00  0.00    -0.325 OA
ATOM     21  C   UNL d   1     -41.525-123.668 -47.056  0.00  0.00     0.182 C 
ENDBRANCH  19  20
ENDBRANCH  18  19
ENDBRANCH   3  18
TORSDOF 7
ENDMDL
MODEL 2
REMARK VINA RESULT:      -2.3      1.015      1.091
REMARK  7 active torsions:
REMARK  status: ('A' for Active; 'I' for Inactive)
REMARK    1  A    between atoms: C_11  and  C_1 
REMARK    2  A    between atoms: C_15  and  N_3 
REMARK    3  A    between atoms: C_7  and  S_12 
REMARK    4  A    between atoms: C_13  and  C_11 
REMARK    5  A    between atoms: S_12  and  C_13 
REMARK    6  A    between atoms: C_20  and  C_15 
REMARK    7  A    between atoms: O_19  and  C_20 
ROOT
ATOM      1  C   UNL d   1     -41.806-122.756 -51.349  0.00  0.00     0.057 A 
ATOM      2  C   UNL d   1     -41.632-123.149 -50.656  0.00  0.00     0.067 A 
ATOM      3  N   UNL d   1     -42.063-122.777 -50.066  0.00  0.00    -0.303 N 
ATOM      4  C   UNL d   1     -42.329-122.161 -51.184  0.00  0.00     0.022 A 
ATOM      5  C   UNL d   1     -42.480-122.181 -50.400  0.00  0.00     0.064 A 
ATOM      6  C   UNL d   1     -41.123-123.792 -50.569  0.00  0.00     0.019 C 
ATOM      7  C   UNL d   1     -42.999-121.655 -49.991  0.00  0.00     0.019 C 
ENDROOT
BRANCH   1   8
ATOM      8  C   UNL d   1     -41.491-122.945 -52.099  0.00  0.00     0.203 C 
ATOM      9  O   UNL d   1     -41.407-123.735 -52.311  0.00  0.00    -0.286 OA
BRANCH   8  10
ATOM     10  C   UNL d   1     -41.266-122.350 -52.620  0.00  0.00     0.079 C 
BRANCH  10  11
ATOM     11  S   UNL d   1     -41.441-122.412 -53.426  0.00  0.00    -0.056 SA
BRANCH  11  12
ATOM     12  C   UNL d   1     -41.722-122.113 -54.150  0.00  0.00     0.164 A 
ATOM     13  S   UNL d   1     -42.021-122.580 -54.767  0.00  0.00    -0.039 SA
ATOM     14  C   UNL d   1     -42.241-122.061 -55.389  0.00  0.00     0.134 A 
ATOM     15  C   UNL d   1     -42.569-122.288 -56.122  0.00  0.00     0.030 C 
ATOM     16  N   UNL d   1     -42.074-121.278 -55.145  0.00  0.00    -0.140 NA
ATOM     17  N   UNL d   1     -41.752-121.321 -54.374  0.00  0.00    -0.134 NA
ENDBRANCH  11  12
ENDBRANCH  10  11
ENDBRANCH   8  10
ENDBRANCH   1   8
BRANCH   3  18
ATOM     18  C   UNL d   1     -42.084-122.965 -49.247  0.00  0.00     0.107 C 
BRANCH  18  19
ATOM     19  C   UNL d   1     -42.592-123.573 -48.986  0.00  0.00     0.135 C 
BRANCH  19  20
ATOM     20  O   UNL d   1     -42.591-123.817 -48.215  0.00  0.00    -0.325 OA
ATOM     21  C   UNL d   1     -43.174-123.792 -47.850  0.00  0.00     0.182 C 
ENDBRANCH  19  20
ENDBRANCH  18  19
ENDBRANCH   3  18
TORSDOF 7
ENDMDL
