MODEL 1
REMARK VINA RESULT:     257.3      0.000      0.000
REMARK  5 active torsions:
REMARK  status: ('A' for Active; 'I' for Inactive)
REMARK    1  A    between atoms: C_2  and  S_1 
REMARK    2  A    between atoms: C_12  and  S_1 
REMARK    3  A    between atoms: N_5  and  C_3 
REMARK    4  A    between atoms: C_18  and  N_7 
REMARK    5  A    between atoms: O_22  and  C_20 
ROOT
ATOM      1  C   UNL d   1     -57.282-100.148 -43.359  0.00  0.00     0.123 A 
ATOM      2  C   UNL d   1     -56.835-100.760 -43.691  0.00  0.00     0.078 A 
ATOM      3  C   UNL d   1     -56.219-101.098 -43.262  0.00  0.00     0.036 A 
ATOM      4  C   UNL d   1     -57.109 -99.877 -42.599  0.00  0.00     0.112 A 
ATOM      5  N   UNL d   1     -56.489-100.218 -42.171  0.00  0.00    -0.243 NA
ATOM      6  C   UNL d   1     -56.046-100.827 -42.503  0.00  0.00     0.083 A 
ATOM      7  C   UNL d   1     -55.775-101.708 -43.594  0.00  0.00     0.027 A 
ATOM      8  C   UNL d   1     -55.429-101.166 -42.075  0.00  0.00     0.021 A 
ATOM      9  C   UNL d   1     -55.153-102.052 -43.165  0.00  0.00     0.094 A 
ATOM     10  C   UNL d   1     -54.980-101.781 -42.405  0.00  0.00     0.026 A 
ENDROOT
BRANCH   2  11
ATOM     11  N   UNL d   1     -57.010-101.034 -44.458  0.00  0.00    -0.301 N 
ATOM     12  C   UNL d   1     -56.910-100.528 -45.109  0.00  0.00     0.100 A 
ATOM     13  C   UNL d   1     -57.086-100.809 -45.870  0.00  0.00     0.100 A 
ATOM     14  N   UNL d   1     -57.358-101.581 -45.980  0.00  0.00    -0.301 N 
ATOM     15  C   UNL d   1     -57.457-102.085 -45.325  0.00  0.00     0.100 A 
ATOM     16  C   UNL d   1     -57.282-101.807 -44.568  0.00  0.00     0.100 A 
BRANCH  14  17
ATOM     17  C   UNL d   1     -57.531-101.852 -46.740  0.00  0.00     0.064 A 
ATOM     18  C   UNL d   1     -58.079-102.468 -46.844  0.00  0.00     0.018 A 
ATOM     19  C   UNL d   1     -58.254-102.742 -47.602  0.00  0.00     0.002 A 
ATOM     20  C   UNL d   1     -57.885-102.403 -48.254  0.00  0.00     0.000 A 
ATOM     21  C   UNL d   1     -57.340-101.789 -48.150  0.00  0.00     0.002 A 
ATOM     22  C   UNL d   1     -57.167-101.518 -47.390  0.00  0.00     0.018 A 
ENDBRANCH  14  17
ENDBRANCH   2  11
BRANCH   1  23
ATOM     23  S   UNL d   1     -57.904 -99.805 -43.788  0.00  0.00     0.213 S 
ATOM     24  O   UNL d   1     -58.212-100.557 -43.946  0.00  0.00    -0.217 OA
ATOM     25  O   UNL d   1     -57.597 -99.045 -43.632  0.00  0.00    -0.217 OA
BRANCH  23  26
ATOM     26  C   UNL d   1     -58.524 -99.462 -44.216  0.00  0.00     0.088 A 
ATOM     27  C   UNL d   1     -58.428 -99.273 -45.013  0.00  0.00     0.011 A 
ATOM     28  C   UNL d   1     -59.043 -98.932 -45.441  0.00  0.00     0.001 A 
ATOM     29  C   UNL d   1     -59.774 -98.773 -45.072  0.00  0.00     0.000 A 
ATOM     30  C   UNL d   1     -59.871 -98.964 -44.271  0.00  0.00     0.001 A 
ATOM     31  C   UNL d   1     -59.244 -99.308 -43.847  0.00  0.00     0.011 A 
ENDBRANCH  23  26
ENDBRANCH   1  23
BRANCH   9  32
ATOM     32  O   UNL d   1     -54.711-102.664 -43.505  0.00  0.00    -0.328 OA
ATOM     33  C   UNL d   1     -54.734-102.776 -44.324  0.00  0.00     0.181 C 
ENDBRANCH   9  32
TORSDOF 5
ENDMDL
