MODEL 1
REMARK VINA RESULT:      26.3      0.000      0.000
REMARK  4 active torsions:
REMARK  status: ('A' for Active; 'I' for Inactive)
REMARK    1  A    between atoms: C_4  and  C_1 
REMARK    2  A    between atoms: C_2  and  C_3 
REMARK    3  A    between atoms: O_7  and  C_13 
REMARK    4  A    between atoms: C_12  and  O_7 
ROOT
ATOM      1  O   UNL d   1      59.754  49.693  49.917  0.00  0.00    -0.307 OA
ENDROOT
BRANCH   1   2
ATOM      2  C   UNL d   1      60.205  49.670  50.614  0.00  0.00     0.100 A 
ATOM      3  C   UNL d   1      59.820  49.618  51.330  0.00  0.00     0.025 A 
ATOM      4  C   UNL d   1      60.260  49.595  52.037  0.00  0.00     0.005 A 
ATOM      5  C   UNL d   1      61.067  49.624  52.015  0.00  0.00     0.039 A 
ATOM      6  C   UNL d   1      61.464  49.678  51.284  0.00  0.00     0.005 A 
ATOM      7  C   UNL d   1      61.026  49.701  50.574  0.00  0.00     0.025 A 
BRANCH   5   8
ATOM      8  C   UNL d   1      61.507  49.601  52.722  0.00  0.00     0.196 C 
ATOM      9  O   UNL d   1      62.330  49.469  52.705  0.00  0.00    -0.287 OA
ATOM     10  C   UNL d   1      61.146  49.706  53.455  0.00  0.00     0.045 C 
ENDBRANCH   5   8
ENDBRANCH   1   2
BRANCH   1  11
ATOM     11  C   UNL d   1      58.919  49.660  49.938  0.00  0.00     0.100 A 
ATOM     12  C   UNL d   1      58.527  49.597  49.213  0.00  0.00     0.025 A 
ATOM     13  C   UNL d   1      57.689  49.564  49.232  0.00  0.00     0.005 A 
ATOM     14  C   UNL d   1      57.271  49.593  49.947  0.00  0.00     0.039 A 
ATOM     15  C   UNL d   1      57.694  49.656  50.646  0.00  0.00     0.005 A 
ATOM     16  C   UNL d   1      58.517  49.689  50.642  0.00  0.00     0.025 A 
BRANCH  14  17
ATOM     17  C   UNL d   1      56.465  49.561  49.965  0.00  0.00     0.196 C 
ATOM     18  O   UNL d   1      56.064  49.440  50.686  0.00  0.00    -0.287 OA
ATOM     19  C   UNL d   1      56.038  49.648  49.271  0.00  0.00     0.045 C 
ENDBRANCH  14  17
ENDBRANCH   1  11
TORSDOF 4
ENDMDL
