MODEL 1
REMARK VINA RESULT:      -7.1      0.000      0.000
REMARK  6 active torsions:
REMARK  status: ('A' for Active; 'I' for Inactive)
REMARK    1  A    between atoms: C_2  and  S_1 
REMARK    2  A    between atoms: N_6  and  S_1 
REMARK    3  A    between atoms: C_14  and  N_6 
REMARK    4  A    between atoms: C_8  and  C_13 
REMARK    5  A    between atoms: C_13  and  C_15 
REMARK    6  A    between atoms: C_15  and  C_14 
ROOT
ATOM      1  S   UNL d   1      52.960  33.046  53.361  0.00  0.00     0.291 S 
ATOM      2  O   UNL d   1      53.792  33.043  53.295  0.00  0.00    -0.198 OA
ATOM      3  O   UNL d   1      52.133  33.046  53.425  0.00  0.00    -0.198 OA
ENDROOT
BRANCH   1   4
ATOM      4  C   UNL d   1      52.983  33.813  53.684  0.00  0.00     0.135 A 
ATOM      5  S   UNL d   1      53.271  34.027  54.421  0.00  0.00    -0.073 SA
ATOM      6  C   UNL d   1      53.185  34.845  54.509  0.00  0.00     0.036 A 
ATOM      7  C   UNL d   1      52.853  35.142  53.850  0.00  0.00     0.008 A 
ATOM      8  C   UNL d   1      52.719  34.514  53.320  0.00  0.00     0.020 A 
ENDBRANCH   1   4
BRANCH   1   9
ATOM      9  N   UNL d   1      52.933  32.273  53.036  0.00  0.00    -0.156 NA
BRANCH   9  10
ATOM     10  C   UNL d   1      53.237  31.625  53.449  0.00  0.00     0.112 C 
BRANCH  10  11
ATOM     11  C   UNL d   1      53.022  30.860  53.258  0.00  0.00     0.028 C 
BRANCH  11  12
ATOM     12  C   UNL d   1      53.437  30.224  53.575  0.00  0.00     0.072 C 
BRANCH  12  13
ATOM     13  C   UNL d   1      53.063  29.505  53.734  0.00  0.00     0.211 C 
ATOM     14  O   UNL d   1      53.253  29.059  54.410  0.00  0.00    -0.644 OA
ATOM     15  O   UNL d   1      52.489  29.212  53.223  0.00  0.00    -0.644 OA
ENDBRANCH  12  13
ENDBRANCH  11  12
ENDBRANCH  10  11
ENDBRANCH   9  10
ENDBRANCH   1   9
TORSDOF 6
ENDMDL
MODEL 2
REMARK VINA RESULT:      -7.0      1.500      4.132
REMARK  6 active torsions:
REMARK  status: ('A' for Active; 'I' for Inactive)
REMARK    1  A    between atoms: C_2  and  S_1 
REMARK    2  A    between atoms: N_6  and  S_1 
REMARK    3  A    between atoms: C_14  and  N_6 
REMARK    4  A    between atoms: C_8  and  C_13 
REMARK    5  A    between atoms: C_13  and  C_15 
REMARK    6  A    between atoms: C_15  and  C_14 
ROOT
ATOM      1  S   UNL d   1      53.379  31.992  53.312  0.00  0.00     0.291 S 
ATOM      2  O   UNL d   1      52.895  32.071  52.637  0.00  0.00    -0.198 OA
ATOM      3  O   UNL d   1      53.861  31.916  53.983  0.00  0.00    -0.198 OA
ENDROOT
BRANCH   1   4
ATOM      4  C   UNL d   1      53.231  31.172  53.327  0.00  0.00     0.135 A 
ATOM      5  S   UNL d   1      52.622  30.777  52.949  0.00  0.00    -0.073 SA
ATOM      6  C   UNL d   1      52.688  29.969  53.117  0.00  0.00     0.036 A 
ATOM      7  C   UNL d   1      53.320  29.855  53.588  0.00  0.00     0.008 A 
ATOM      8  C   UNL d   1      53.674  30.595  53.732  0.00  0.00     0.020 A 
ENDBRANCH   1   4
BRANCH   1   9
ATOM      9  N   UNL d   1      53.530  32.817  53.299  0.00  0.00    -0.156 NA
BRANCH   9  10
ATOM     10  C   UNL d   1      53.092  33.339  53.765  0.00  0.00     0.112 C 
BRANCH  10  11
ATOM     11  C   UNL d   1      53.353  34.100  53.912  0.00  0.00     0.028 C 
BRANCH  11  12
ATOM     12  C   UNL d   1      52.822  34.674  54.173  0.00  0.00     0.072 C 
BRANCH  12  13
ATOM     13  C   UNL d   1      53.072  35.305  54.642  0.00  0.00     0.211 C 
ATOM     14  O   UNL d   1      53.263  35.200  55.444  0.00  0.00    -0.644 OA
ATOM     15  O   UNL d   1      53.138  36.061  54.322  0.00  0.00    -0.644 OA
ENDBRANCH  12  13
ENDBRANCH  11  12
ENDBRANCH  10  11
ENDBRANCH   9  10
ENDBRANCH   1   9
TORSDOF 6
ENDMDL
MODEL 3
REMARK VINA RESULT:      -6.5      2.451      3.700
REMARK  6 active torsions:
REMARK  status: ('A' for Active; 'I' for Inactive)
REMARK    1  A    between atoms: C_2  and  S_1 
REMARK    2  A    between atoms: N_6  and  S_1 
REMARK    3  A    between atoms: C_14  and  N_6 
REMARK    4  A    between atoms: C_8  and  C_13 
REMARK    5  A    between atoms: C_13  and  C_15 
REMARK    6  A    between atoms: C_15  and  C_14 
ROOT
ATOM      1  S   UNL d   1      53.174  33.925  53.854  0.00  0.00     0.291 S 
ATOM      2  O   UNL d   1      53.360  33.323  53.308  0.00  0.00    -0.198 OA
ATOM      3  O   UNL d   1      52.986  34.525  54.395  0.00  0.00    -0.198 OA
ENDROOT
BRANCH   1   4
ATOM      4  C   UNL d   1      53.729  33.616  54.392  0.00  0.00     0.135 A 
ATOM      5  S   UNL d   1      53.804  32.835  54.625  0.00  0.00    -0.073 SA
ATOM      6  C   UNL d   1      54.428  32.779  55.165  0.00  0.00     0.036 A 
ATOM      7  C   UNL d   1      54.741  33.504  55.272  0.00  0.00     0.008 A 
ATOM      8  C   UNL d   1      54.319  34.042  54.797  0.00  0.00     0.020 A 
ENDBRANCH   1   4
BRANCH   1   9
ATOM      9  N   UNL d   1      52.613  34.239  53.315  0.00  0.00    -0.156 NA
BRANCH   9  10
ATOM     10  C   UNL d   1      51.824  33.993  53.327  0.00  0.00     0.112 C 
BRANCH  10  11
ATOM     11  C   UNL d   1      51.255  34.366  52.873  0.00  0.00     0.028 C 
BRANCH  11  12
ATOM     12  C   UNL d   1      50.485  34.074  52.857  0.00  0.00     0.072 C 
BRANCH  12  13
ATOM     13  C   UNL d   1      49.870  34.509  52.519  0.00  0.00     0.211 C 
ATOM     14  O   UNL d   1      49.424  35.049  52.968  0.00  0.00    -0.644 OA
ATOM     15  O   UNL d   1      49.684  34.417  51.722  0.00  0.00    -0.644 OA
ENDBRANCH  12  13
ENDBRANCH  11  12
ENDBRANCH  10  11
ENDBRANCH   9  10
ENDBRANCH   1   9
TORSDOF 6
ENDMDL
