MODEL 1
REMARK VINA RESULT:      81.8      0.000      0.000
REMARK  8 active torsions:
REMARK  status: ('A' for Active; 'I' for Inactive)
REMARK    1  A    between atoms: C_5  and  C_1 
REMARK    2  A    between atoms: N_6  and  C_2 
REMARK    3  A    between atoms: C_7  and  C_5 
REMARK    4  A    between atoms: C_8  and  C_5 
REMARK    5  A    between atoms: O_13  and  C_7 
REMARK    6  A    between atoms: C_21  and  N_12 
REMARK    7  A    between atoms: C_19  and  O_13 
REMARK    8  A    between atoms: C_20  and  C_19 
ROOT
ATOM      1  C   UNL d   1     -51.511  25.797  33.767  0.00  0.00     0.122 A 
ATOM      2  C   UNL d   1     -50.917  25.271  33.553  0.00  0.00     0.166 A 
ATOM      3  N   UNL d   1     -51.113  24.489  33.401  0.00  0.00    -0.225 NA
ATOM      4  N   UNL d   1     -52.294  25.544  33.829  0.00  0.00    -0.241 NA
ATOM      5  C   UNL d   1     -51.884  24.230  33.460  0.00  0.00     0.101 A 
ATOM      6  C   UNL d   1     -52.479  24.762  33.676  0.00  0.00     0.099 A 
ATOM      7  C   UNL d   1     -53.253  24.507  33.737  0.00  0.00     0.021 A 
ATOM      8  C   UNL d   1     -52.075  23.442  33.307  0.00  0.00     0.021 A 
ATOM      9  C   UNL d   1     -52.857  23.189  33.369  0.00  0.00     0.002 A 
ATOM     10  C   UNL d   1     -53.444  23.719  33.583  0.00  0.00     0.002 A 
ENDROOT
BRANCH   1  11
ATOM     11  C   UNL d   1     -51.330  26.593  33.924  0.00  0.00     0.105 C 
BRANCH  11  12
ATOM     12  C   UNL d   1     -51.118  26.837  34.685  0.00  0.00     0.303 C 
ATOM     13  O   UNL d   1     -50.474  27.334  34.783  0.00  0.00    -0.259 OA
BRANCH  12  14
ATOM     14  O   UNL d   1     -51.553  26.580  35.324  0.00  0.00    -0.271 OA
BRANCH  14  15
ATOM     15  C   UNL d   1     -52.051  26.757  35.949  0.00  0.00     0.126 C 
BRANCH  15  16
ATOM     16  C   UNL d   1     -51.899  26.457  36.696  0.00  0.00     0.025 A 
ATOM     17  C   UNL d   1     -52.435  25.935  37.036  0.00  0.00     0.002 A 
ATOM     18  C   UNL d   1     -52.285  25.630  37.790  0.00  0.00     0.000 A 
ATOM     19  C   UNL d   1     -51.602  25.852  38.192  0.00  0.00     0.000 A 
ATOM     20  C   UNL d   1     -51.069  26.379  37.840  0.00  0.00     0.000 A 
ATOM     21  C   UNL d   1     -51.221  26.677  37.097  0.00  0.00     0.002 A 
ENDBRANCH  15  16
ENDBRANCH  14  15
ENDBRANCH  12  14
ENDBRANCH  11  12
BRANCH  11  22
ATOM     22  C   UNL d   1     -51.362  27.149  33.306  0.00  0.00     0.129 C 
ATOM     23  N   UNL d   1     -51.776  28.001  33.405  0.00  0.00    -0.146 N 
ENDBRANCH  11  22
ENDBRANCH   1  11
BRANCH   2  24
ATOM     24  N   UNL d   1     -50.140  25.529  33.492  0.00  0.00    -0.285 N 
ATOM     25  C   UNL d   1     -49.526  24.990  33.506  0.00  0.00     0.101 A 
ATOM     26  C   UNL d   1     -48.748  25.256  33.445  0.00  0.00     0.100 A 
ATOM     27  N   UNL d   1     -48.591  26.064  33.371  0.00  0.00    -0.300 N 
ATOM     28  C   UNL d   1     -49.213  26.606  33.357  0.00  0.00     0.100 A 
ATOM     29  C   UNL d   1     -49.984  26.338  33.418  0.00  0.00     0.101 A 
BRANCH  27  30
ATOM     30  C   UNL d   1     -47.805  26.329  33.309  0.00  0.00     0.080 C 
ATOM     31  C   UNL d   1     -47.318  26.305  33.977  0.00  0.00     0.021 C 
ENDBRANCH  27  30
ENDBRANCH   2  24
TORSDOF 8
ENDMDL
