MODEL 1
REMARK VINA RESULT:      36.4      0.000      0.000
REMARK  3 active torsions:
REMARK  status: ('A' for Active; 'I' for Inactive)
REMARK    1  A    between atoms: C_11  and  C_6 
REMARK    2  A    between atoms: O_20  and  C_11 
REMARK    3  A    between atoms: C_22  and  O_20 
ROOT
ATOM      1  C   UNL d   1     -54.712-100.736 -38.212  0.00  0.00     0.155 A 
ATOM      2  C   UNL d   1     -54.712-101.450 -37.799  0.00  0.00     0.091 A 
ATOM      3  N   UNL d   1     -54.712-100.736 -39.035  0.00  0.00    -0.210 NA
ATOM      4  N   UNL d   1     -54.712-102.164 -39.032  0.00  0.00    -0.258 N 
ATOM      5  N   UNL d   1     -54.712-100.022 -37.802  0.00  0.00    -0.272 N 
ATOM      6  C   UNL d   1     -54.712-100.731 -36.558  0.00  0.00     0.100 A 
ATOM      7  C   UNL d   1     -54.712-101.446 -39.438  0.00  0.00     0.152 A 
ATOM      8  C   UNL d   1     -54.713-102.164 -38.208  0.00  0.00     0.269 A 
ATOM      9  C   UNL d   1     -54.712-100.017 -36.972  0.00  0.00     0.176 A 
ATOM     10  C   UNL d   1     -54.713-101.453 -36.973  0.00  0.00     0.016 A 
ATOM     11  C   UNL d   1     -54.712-101.451 -40.268  0.00  0.00     0.035 A 
ATOM     12  C   UNL d   1     -54.712-102.878 -39.441  0.00  0.00     0.084 A 
ATOM     13  N   UNL d   1     -54.712 -99.302 -36.559  0.00  0.00    -0.128 N 
ATOM     14  O   UNL d   1     -54.713-102.878 -37.794  0.00  0.00    -0.266 OA
ATOM     15  C   UNL d   1     -54.712-102.874 -40.257  0.00  0.00     0.019 A 
ATOM     16  C   UNL d   1     -54.712-102.160 -40.671  0.00  0.00     0.005 A 
ATOM     17  C   UNL d   1     -54.711 -99.308 -38.216  0.00  0.00     0.102 C 
ATOM     18  C   UNL d   1     -54.711-100.737 -40.682  0.00  0.00     0.003 C 
ENDROOT
BRANCH   6  19
ATOM     19  C   UNL d   1     -54.713-100.729 -35.731  0.00  0.00     0.303 C 
ATOM     20  O   UNL d   1     -54.713-100.014 -35.321  0.00  0.00    -0.259 OA
BRANCH  19  21
ATOM     21  O   UNL d   1     -54.712-101.442 -35.319  0.00  0.00    -0.271 OA
BRANCH  21  22
ATOM     22  C   UNL d   1     -55.379-101.925 -35.336  0.00  0.00     0.126 C 
ATOM     23  C   UNL d   1     -55.291-102.742 -35.398  0.00  0.00     0.029 C 
ENDBRANCH  21  22
ENDBRANCH  19  21
ENDBRANCH   6  19
TORSDOF 3
ENDMDL
