MODEL 1
REMARK VINA RESULT:      -2.9      0.000      0.000
REMARK  4 active torsions:
REMARK  status: ('A' for Active; 'I' for Inactive)
REMARK    1  A    between atoms: N_2  and  C_1 
REMARK       I    between atoms: C_6  and  N_2 
REMARK    2  A    between atoms: C_21  and  N_3 
REMARK    3  A    between atoms: C_8  and  C_6 
REMARK       I    between atoms: C_17  and  N_18 
REMARK    4  A    between atoms: N_18  and  C_19 
ROOT
ATOM      1  C   UNL d   1     -41.493-120.646 -51.264  0.00  0.00    -0.031 C 
ATOM      2  C   UNL d   1     -41.123-119.929 -51.431  0.00  0.00    -0.008 C 
ATOM      3  C   UNL d   1     -41.865-121.363 -51.095  0.00  0.00     0.133 C 
ENDROOT
BRANCH   3   4
ATOM      4  N   UNL d   1     -41.596-122.065 -51.441  0.00  0.00    -0.278 N 
ATOM      5  C   UNL d   1     -41.336-122.735 -51.042  0.00  0.00     0.183 A 
ATOM      6  S   UNL d   1     -41.123-123.299 -51.605  0.00  0.00    -0.048 SA
ATOM      7  C   UNL d   1     -41.252-122.975 -52.356  0.00  0.00     0.050 A 
ATOM      8  C   UNL d   1     -41.140-123.277 -53.116  0.00  0.00     0.027 A 
ATOM      9  C   UNL d   1     -41.546-122.209 -52.254  0.00  0.00     0.073 A 
ATOM     10  C   UNL d   1     -41.322-122.814 -53.773  0.00  0.00     0.085 A 
ATOM     11  C   UNL d   1     -41.616-122.048 -53.672  0.00  0.00     0.021 A 
ATOM     12  C   UNL d   1     -41.728-121.746 -52.912  0.00  0.00     0.020 A 
BRANCH   5  13
ATOM     13  N   UNL d   1     -41.298-122.821 -50.220  0.00  0.00    -0.183 NA
ATOM     14  C   UNL d   1     -41.845-123.305 -49.837  0.00  0.00     0.287 C 
ATOM     15  O   UNL d   1     -42.424-123.698 -50.274  0.00  0.00    -0.265 OA
BRANCH  14  16
ATOM     16  C   UNL d   1     -41.814-123.396 -49.016  0.00  0.00     0.088 A 
ATOM     17  S   UNL d   1     -42.454-123.602 -48.509  0.00  0.00    -0.075 SA
ATOM     18  C   UNL d   1     -42.172-123.630 -47.737  0.00  0.00     0.064 A 
ATOM     19 BR   UNL d   1     -42.610-123.812 -47.046  0.00  0.00    -0.042 Br
ATOM     20  C   UNL d   1     -41.366-123.445 -47.753  0.00  0.00     0.014 A 
ATOM     21  C   UNL d   1     -41.152-123.303 -48.534  0.00  0.00     0.012 A 
ENDBRANCH  14  16
ENDBRANCH   5  13
BRANCH  10  22
ATOM     22  N   UNL d   1     -41.210-123.118 -54.546  0.00  0.00    -0.208 NA
ATOM     23  C   UNL d   1     -41.633-122.805 -55.171  0.00  0.00     0.279 C 
ATOM     24  O   UNL d   1     -41.520-123.107 -55.931  0.00  0.00    -0.265 OA
ATOM     25  C   UNL d   1     -42.174-122.191 -55.054  0.00  0.00     0.068 C 
ENDBRANCH  10  22
ENDBRANCH   3   4
TORSDOF 4
ENDMDL
MODEL 2
REMARK VINA RESULT:      -1.7      2.242      5.051
REMARK  4 active torsions:
REMARK  status: ('A' for Active; 'I' for Inactive)
REMARK    1  A    between atoms: N_2  and  C_1 
REMARK       I    between atoms: C_6  and  N_2 
REMARK    2  A    between atoms: C_21  and  N_3 
REMARK    3  A    between atoms: C_8  and  C_6 
REMARK       I    between atoms: C_17  and  N_18 
REMARK    4  A    between atoms: N_18  and  C_19 
ROOT
ATOM      1  C   UNL d   1     -43.540-121.779 -50.979  0.00  0.00    -0.031 C 
ATOM      2  C   UNL d   1     -44.345-121.935 -50.886  0.00  0.00    -0.008 C 
ATOM      3  C   UNL d   1     -42.737-121.623 -51.073  0.00  0.00     0.133 C 
ENDROOT
BRANCH   3   4
ATOM      4  N   UNL d   1     -42.172-122.198 -50.883  0.00  0.00    -0.278 N 
ATOM      5  C   UNL d   1     -41.652-122.561 -51.404  0.00  0.00     0.183 A 
ATOM      6  S   UNL d   1     -41.192-123.095 -50.975  0.00  0.00    -0.048 SA
ATOM      7  C   UNL d   1     -41.431-123.061 -50.182  0.00  0.00     0.050 A 
ATOM      8  C   UNL d   1     -41.174-123.463 -49.509  0.00  0.00     0.027 A 
ATOM      9  C   UNL d   1     -42.040-122.504 -50.125  0.00  0.00     0.073 A 
ATOM     10  C   UNL d   1     -41.525-123.309 -48.779  0.00  0.00     0.085 A 
ATOM     11  C   UNL d   1     -42.134-122.752 -48.721  0.00  0.00     0.021 A 
ATOM     12  C   UNL d   1     -42.391-122.350 -49.394  0.00  0.00     0.020 A 
BRANCH   5  13
ATOM     13  N   UNL d   1     -41.603-122.412 -52.216  0.00  0.00    -0.183 NA
ATOM     14  C   UNL d   1     -41.611-123.045 -52.746  0.00  0.00     0.287 C 
ATOM     15  O   UNL d   1     -41.667-123.817 -52.464  0.00  0.00    -0.265 OA
BRANCH  14  16
ATOM     16  C   UNL d   1     -41.563-122.904 -53.560  0.00  0.00     0.088 A 
ATOM     17  S   UNL d   1     -41.953-122.291 -53.986  0.00  0.00    -0.075 SA
ATOM     18  C   UNL d   1     -41.747-122.359 -54.780  0.00  0.00     0.064 A 
ATOM     19 BR   UNL d   1     -42.001-121.871 -55.411  0.00  0.00    -0.042 Br
ATOM     20  C   UNL d   1     -41.235-123.005 -54.856  0.00  0.00     0.014 A 
ATOM     21  C   UNL d   1     -41.125-123.334 -54.110  0.00  0.00     0.012 A 
ENDBRANCH  14  16
ENDBRANCH   5  13
BRANCH  10  22
ATOM     22  N   UNL d   1     -41.266-123.716 -48.094  0.00  0.00    -0.208 NA
ATOM     23  C   UNL d   1     -41.387-123.386 -47.356  0.00  0.00     0.279 C 
ATOM     24  O   UNL d   1     -41.131-123.789 -46.683  0.00  0.00    -0.265 OA
ATOM     25  C   UNL d   1     -41.762-122.654 -47.273  0.00  0.00     0.068 C 
ENDBRANCH  10  22
ENDBRANCH   3   4
TORSDOF 4
ENDMDL
