MODEL 1
REMARK VINA RESULT:      -6.9      0.000      0.000
REMARK  1 active torsions:
REMARK  status: ('A' for Active; 'I' for Inactive)
REMARK    1  A    between atoms: C_6  and  C_1 
ROOT
ATOM      1  C   UNL d   1     -47.099  13.314  23.004  0.00  0.00     0.085 A 
ATOM      2  C   UNL d   1     -47.691  13.868  22.826  0.00  0.00     0.137 A 
ATOM      3  S   UNL d   1     -48.394  13.532  22.949  0.00  0.00    -0.066 SA
ATOM      4  C   UNL d   1     -47.474  12.624  23.243  0.00  0.00     0.013 A 
ATOM      5  C   UNL d   1     -48.280  12.760  23.209  0.00  0.00     0.031 A 
ATOM      6  N   UNL d   1     -47.570  14.656  22.558  0.00  0.00    -0.141 N 
ATOM      7  C   UNL d   1     -47.193  11.887  23.488  0.00  0.00     0.001 A 
ATOM      8  C   UNL d   1     -48.807  12.159  23.420  0.00  0.00     0.006 A 
ATOM      9  C   UNL d   1     -47.719  11.287  23.698  0.00  0.00     0.000 A 
ATOM     10  C   UNL d   1     -48.525  11.423  23.664  0.00  0.00     0.001 A 
ENDROOT
BRANCH   1  11
ATOM     11  C   UNL d   1     -46.247  13.433  22.951  0.00  0.00     0.299 C 
ATOM     12  O   UNL d   1     -45.817  13.672  23.627  0.00  0.00    -0.264 OA
ATOM     13  N   UNL d   1     -45.848  13.311  22.232  0.00  0.00    -0.102 N 
ENDBRANCH   1  11
TORSDOF 1
ENDMDL
MODEL 2
REMARK VINA RESULT:      -6.8      1.075      2.082
REMARK  1 active torsions:
REMARK  status: ('A' for Active; 'I' for Inactive)
REMARK    1  A    between atoms: C_6  and  C_1 
ROOT
ATOM      1  C   UNL d   1     -47.208  13.327  22.980  0.00  0.00     0.085 A 
ATOM      2  C   UNL d   1     -47.619  12.623  23.135  0.00  0.00     0.137 A 
ATOM      3  S   UNL d   1     -48.391  12.763  23.067  0.00  0.00    -0.066 SA
ATOM      4  C   UNL d   1     -47.767  13.905  22.814  0.00  0.00     0.013 A 
ATOM      5  C   UNL d   1     -48.504  13.554  22.868  0.00  0.00     0.031 A 
ATOM      6  N   UNL d   1     -47.275  11.881  23.332  0.00  0.00    -0.141 N 
ATOM      7  C   UNL d   1     -47.708  14.706  22.620  0.00  0.00     0.001 A 
ATOM      8  C   UNL d   1     -49.183  14.003  22.729  0.00  0.00     0.006 A 
ATOM      9  C   UNL d   1     -48.387  15.154  22.481  0.00  0.00     0.000 A 
ATOM     10  C   UNL d   1     -49.124  14.803  22.535  0.00  0.00     0.001 A 
ENDROOT
BRANCH   1  11
ATOM     11  C   UNL d   1     -46.353  13.441  22.990  0.00  0.00     0.299 C 
ATOM     12  O   UNL d   1     -45.972  13.672  23.696  0.00  0.00    -0.264 OA
ATOM     13  N   UNL d   1     -45.905  13.321  22.300  0.00  0.00    -0.102 N 
ENDBRANCH   1  11
TORSDOF 1
ENDMDL
MODEL 3
REMARK VINA RESULT:      -6.5      1.779      2.421
REMARK  1 active torsions:
REMARK  status: ('A' for Active; 'I' for Inactive)
REMARK    1  A    between atoms: C_6  and  C_1 
ROOT
ATOM      1  C   UNL d   1     -48.403  12.647  22.960  0.00  0.00     0.085 A 
ATOM      2  C   UNL d   1     -48.887  13.321  22.953  0.00  0.00     0.137 A 
ATOM      3  S   UNL d   1     -48.427  13.960  22.940  0.00  0.00    -0.066 SA
ATOM      4  C   UNL d   1     -47.624  12.906  22.951  0.00  0.00     0.013 A 
ATOM      5  C   UNL d   1     -47.638  13.723  22.939  0.00  0.00     0.031 A 
ATOM      6  N   UNL d   1     -49.729  13.328  22.958  0.00  0.00    -0.141 N 
ATOM      7  C   UNL d   1     -46.899  12.509  22.953  0.00  0.00     0.001 A 
ATOM      8  C   UNL d   1     -46.929  14.146  22.927  0.00  0.00     0.006 A 
ATOM      9  C   UNL d   1     -46.191  12.931  22.942  0.00  0.00     0.000 A 
ATOM     10  C   UNL d   1     -46.206  13.749  22.929  0.00  0.00     0.001 A 
ENDROOT
BRANCH   1  11
ATOM     11  C   UNL d   1     -48.661  11.824  22.975  0.00  0.00     0.299 C 
ATOM     12  O   UNL d   1     -48.796  11.418  22.257  0.00  0.00    -0.264 OA
ATOM     13  N   UNL d   1     -48.777  11.432  23.698  0.00  0.00    -0.102 N 
ENDBRANCH   1  11
TORSDOF 1
ENDMDL
MODEL 4
REMARK VINA RESULT:      -6.4      1.830      2.498
REMARK  1 active torsions:
REMARK  status: ('A' for Active; 'I' for Inactive)
REMARK    1  A    between atoms: C_6  and  C_1 
ROOT
ATOM      1  C   UNL d   1     -48.563  12.703  22.295  0.00  0.00     0.085 A 
ATOM      2  C   UNL d   1     -48.953  12.117  22.736  0.00  0.00     0.137 A 
ATOM      3  S   UNL d   1     -48.455  11.840  23.281  0.00  0.00    -0.066 SA
ATOM      4  C   UNL d   1     -47.803  12.771  22.597  0.00  0.00     0.013 A 
ATOM      5  C   UNL d   1     -47.735  12.234  23.211  0.00  0.00     0.031 A 
ATOM      6  N   UNL d   1     -49.745  11.857  22.625  0.00  0.00    -0.141 N 
ATOM      7  C   UNL d   1     -47.159  13.249  22.398  0.00  0.00     0.001 A 
ATOM      8  C   UNL d   1     -47.024  12.174  23.627  0.00  0.00     0.006 A 
ATOM      9  C   UNL d   1     -46.449  13.189  22.814  0.00  0.00     0.000 A 
ATOM     10  C   UNL d   1     -46.382  12.652  23.427  0.00  0.00     0.001 A 
ENDROOT
BRANCH   1  11
ATOM     11  C   UNL d   1     -48.889  13.160  21.641  0.00  0.00     0.299 C 
ATOM     12  O   UNL d   1     -48.792  12.890  20.856  0.00  0.00    -0.264 OA
ATOM     13  N   UNL d   1     -49.299  13.868  21.785  0.00  0.00    -0.102 N 
ENDBRANCH   1  11
TORSDOF 1
ENDMDL
