MODEL 1
REMARK VINA RESULT:      -3.0      0.000      0.000
REMARK  5 active torsions:
REMARK  status: ('A' for Active; 'I' for Inactive)
REMARK    1  A    between atoms: N_2  and  S_1 
REMARK    2  A    between atoms: C_3  and  S_1 
REMARK    3  A    between atoms: C_8  and  N_2 
REMARK    4  A    between atoms: C_7  and  C_6 
REMARK    5  A    between atoms: C_16  and  C_8 
ROOT
ATOM      1  C   UNL d   1      32.571  17.085 -23.707  0.00  0.00     0.105 A 
ATOM      2  C   UNL d   1      32.794  18.634 -23.159  0.00  0.00     0.000 A 
ATOM      3  C   UNL d   1      32.793  17.219 -22.925  0.00  0.00     0.013 A 
ATOM      4  C   UNL d   1      32.461  17.723 -24.215  0.00  0.00     0.013 A 
ATOM      5  C   UNL d   1      32.905  17.997 -22.650  0.00  0.00     0.001 A 
ATOM      6  C   UNL d   1      32.573  18.501 -23.940  0.00  0.00     0.001 A 
ENDROOT
BRANCH   1   7
ATOM      7  S   UNL d   1      32.462  16.313 -23.975  0.00  0.00     0.285 S 
ATOM      8  O   UNL d   1      33.225  16.303 -24.273  0.00  0.00    -0.198 OA
ATOM      9  O   UNL d   1      32.356  15.548 -24.241  0.00  0.00    -0.198 OA
BRANCH   7  10
ATOM     10  N   UNL d   1      31.693  16.319 -23.675  0.00  0.00    -0.155 NA
BRANCH  10  11
ATOM     11  C   UNL d   1      31.139  15.774 -23.959  0.00  0.00     0.137 C 
BRANCH  11  12
ATOM     12  C   UNL d   1      30.368  15.761 -23.634  0.00  0.00     0.120 A 
ATOM     13  O   UNL d   1      30.151  15.468 -22.891  0.00  0.00    -0.304 OA
ATOM     14  C   UNL d   1      29.337  15.570 -22.809  0.00  0.00     0.123 A 
ATOM     15  C   UNL d   1      29.053  15.921 -23.490  0.00  0.00     0.029 A 
ATOM     16  C   UNL d   1      29.689  16.040 -24.003  0.00  0.00     0.028 A 
ENDBRANCH  11  12
ENDBRANCH  10  11
ENDBRANCH   7  10
ENDBRANCH   1   7
BRANCH   2  17
ATOM     17  C   UNL d   1      32.905  19.396 -22.885  0.00  0.00     0.000 A 
ATOM     18  C   UNL d   1      32.831  19.555 -22.080  0.00  0.00     0.000 A 
ATOM     19  C   UNL d   1      32.942  20.321 -21.795  0.00  0.00     0.000 A 
ATOM     20  C   UNL d   1      33.129  20.933 -22.329  0.00  0.00     0.000 A 
ATOM     21  C   UNL d   1      33.203  20.775 -23.133  0.00  0.00     0.000 A 
ATOM     22  C   UNL d   1      33.240  21.701 -22.048  0.00  0.00     0.000 C 
ATOM     23  C   UNL d   1      33.092  20.007 -23.415  0.00  0.00     0.000 A 
ENDBRANCH   2  17
TORSDOF 5
ENDMDL
MODEL 2
REMARK VINA RESULT:      -2.9      0.887      1.289
REMARK  5 active torsions:
REMARK  status: ('A' for Active; 'I' for Inactive)
REMARK    1  A    between atoms: N_2  and  S_1 
REMARK    2  A    between atoms: C_3  and  S_1 
REMARK    3  A    between atoms: C_8  and  N_2 
REMARK    4  A    between atoms: C_7  and  C_6 
REMARK    5  A    between atoms: C_16  and  C_8 
ROOT
ATOM      1  C   UNL d   1      32.683  18.151 -23.885  0.00  0.00     0.105 A 
ATOM      2  C   UNL d   1      32.864  19.376 -22.783  0.00  0.00     0.000 A 
ATOM      3  C   UNL d   1      33.117  18.026 -23.196  0.00  0.00     0.013 A 
ATOM      4  C   UNL d   1      32.339  18.885 -24.024  0.00  0.00     0.013 A 
ATOM      5  C   UNL d   1      33.208  18.642 -22.642  0.00  0.00     0.001 A 
ATOM      6  C   UNL d   1      32.430  19.501 -23.470  0.00  0.00     0.001 A 
ENDROOT
BRANCH   1   7
ATOM      7  S   UNL d   1      32.595  17.538 -24.430  0.00  0.00     0.285 S 
ATOM      8  O   UNL d   1      33.230  17.826 -24.863  0.00  0.00    -0.198 OA
ATOM      9  O   UNL d   1      32.511  16.932 -24.972  0.00  0.00    -0.198 OA
BRANCH   7  10
ATOM     10  N   UNL d   1      31.957  17.245 -23.997  0.00  0.00    -0.155 NA
BRANCH  10  11
ATOM     11  C   UNL d   1      31.605  16.531 -24.221  0.00  0.00     0.137 C 
BRANCH  11  12
ATOM     12  C   UNL d   1      30.932  16.254 -23.807  0.00  0.00     0.120 A 
ATOM     13  O   UNL d   1      30.182  16.601 -23.797  0.00  0.00    -0.304 OA
ATOM     14  C   UNL d   1      29.697  16.139 -23.317  0.00  0.00     0.123 A 
ATOM     15  C   UNL d   1      30.140  15.513 -23.033  0.00  0.00     0.029 A 
ATOM     16  C   UNL d   1      30.905  15.582 -23.334  0.00  0.00     0.028 A 
ENDBRANCH  11  12
ENDBRANCH  10  11
ENDBRANCH   7  10
ENDBRANCH   1   7
BRANCH   2  17
ATOM     17  C   UNL d   1      32.955  19.977 -22.237  0.00  0.00     0.000 A 
ATOM     18  C   UNL d   1      33.063  20.752 -22.496  0.00  0.00     0.000 A 
ATOM     19  C   UNL d   1      33.156  21.365 -21.952  0.00  0.00     0.000 A 
ATOM     20  C   UNL d   1      33.141  21.192 -21.136  0.00  0.00     0.000 A 
ATOM     21  C   UNL d   1      33.034  20.419 -20.877  0.00  0.00     0.000 A 
ATOM     22  C   UNL d   1      33.234  21.803 -20.589  0.00  0.00     0.000 C 
ATOM     23  C   UNL d   1      32.941  19.809 -21.424  0.00  0.00     0.000 A 
ENDBRANCH   2  17
TORSDOF 5
ENDMDL
MODEL 3
REMARK VINA RESULT:      -2.0      1.071      4.709
REMARK  5 active torsions:
REMARK  status: ('A' for Active; 'I' for Inactive)
REMARK    1  A    between atoms: N_2  and  S_1 
REMARK    2  A    between atoms: C_3  and  S_1 
REMARK    3  A    between atoms: C_8  and  N_2 
REMARK    4  A    between atoms: C_7  and  C_6 
REMARK    5  A    between atoms: C_16  and  C_8 
ROOT
ATOM      1  C   UNL d   1      31.644  16.302 -24.180  0.00  0.00     0.105 A 
ATOM      2  C   UNL d   1      30.029  16.015 -23.936  0.00  0.00     0.000 A 
ATOM      3  C   UNL d   1      31.097  16.492 -24.767  0.00  0.00     0.013 A 
ATOM      4  C   UNL d   1      31.386  15.971 -23.473  0.00  0.00     0.013 A 
ATOM      5  C   UNL d   1      30.286  16.347 -24.644  0.00  0.00     0.001 A 
ATOM      6  C   UNL d   1      30.575  15.826 -23.350  0.00  0.00     0.001 A 
ENDROOT
BRANCH   1   7
ATOM      7  S   UNL d   1      32.446  16.447 -24.306  0.00  0.00     0.285 S 
ATOM      8  O   UNL d   1      32.526  15.717 -24.671  0.00  0.00    -0.198 OA
ATOM      9  O   UNL d   1      33.241  16.588 -24.433  0.00  0.00    -0.198 OA
BRANCH   7  10
ATOM     10  N   UNL d   1      32.370  17.183 -23.940  0.00  0.00    -0.155 NA
BRANCH  10  11
ATOM     11  C   UNL d   1      33.034  17.668 -23.857  0.00  0.00     0.137 C 
BRANCH  11  12
ATOM     12  C   UNL d   1      32.971  18.385 -23.430  0.00  0.00     0.120 A 
ATOM     13  O   UNL d   1      32.982  18.472 -22.607  0.00  0.00    -0.304 OA
ATOM     14  C   UNL d   1      32.904  19.275 -22.438  0.00  0.00     0.123 A 
ATOM     15  C   UNL d   1      32.845  19.681 -23.145  0.00  0.00     0.029 A 
ATOM     16  C   UNL d   1      32.886  19.133 -23.761  0.00  0.00     0.028 A 
ENDBRANCH  11  12
ENDBRANCH  10  11
ENDBRANCH   7  10
ENDBRANCH   1   7
BRANCH   2  17
ATOM     17  C   UNL d   1      29.233  15.875 -23.820  0.00  0.00     0.000 A 
ATOM     18  C   UNL d   1      28.923  15.885 -23.057  0.00  0.00     0.000 A 
ATOM     19  C   UNL d   1      28.120  15.745 -22.931  0.00  0.00     0.000 A 
ATOM     20  C   UNL d   1      27.624  15.593 -23.584  0.00  0.00     0.000 A 
ATOM     21  C   UNL d   1      27.933  15.583 -24.346  0.00  0.00     0.000 A 
ATOM     22  C   UNL d   1      26.820  15.452 -23.462  0.00  0.00     0.000 C 
ATOM     23  C   UNL d   1      28.737  15.724 -24.468  0.00  0.00     0.000 A 
ENDBRANCH   2  17
TORSDOF 5
ENDMDL
