MODEL 1
REMARK VINA RESULT:      46.9      0.000      0.000
REMARK  3 active torsions:
REMARK  status: ('A' for Active; 'I' for Inactive)
REMARK    1  A    between atoms: C_9  and  C_4 
REMARK    2  A    between atoms: C_10  and  C_7 
REMARK    3  A    between atoms: C_11  and  C_10 
ROOT
ATOM      1  C   UNL d   1     -50.568  26.064  33.310  0.00  0.00     0.179 A 
ATOM      2  N   UNL d   1     -51.234  26.547  33.319  0.00  0.00    -0.282 N 
ATOM      3  N   UNL d   1     -50.820  25.273  33.309  0.00  0.00    -0.221 NA
ATOM      4  C   UNL d   1     -51.641  25.268  33.317  0.00  0.00     0.101 A 
ATOM      5  S   UNL d   1     -49.902  26.549  33.306  0.00  0.00    -0.048 SA
ATOM      6  C   UNL d   1     -51.901  26.053  33.324  0.00  0.00     0.101 A 
ATOM      7  C   UNL d   1     -50.159  27.329  33.313  0.00  0.00     0.050 A 
ATOM      8  C   UNL d   1     -50.988  27.326  33.321  0.00  0.00     0.089 A 
ENDROOT
BRANCH   7   9
ATOM      9  C   UNL d   1     -49.676  27.996  33.311  0.00  0.00     0.008 C 
BRANCH   9  10
ATOM     10  C   UNL d   1     -49.260  28.202  33.991  0.00  0.00     0.001 A 
ATOM     11  C   UNL d   1     -49.186  28.998  34.205  0.00  0.00     0.002 A 
ATOM     12  C   UNL d   1     -48.770  29.204  34.885  0.00  0.00     0.030 A 
ATOM     13  C   UNL d   1     -48.428  28.618  35.354  0.00  0.00     0.140 A 
ATOM     14  C   UNL d   1     -48.502  27.826  35.144  0.00  0.00     0.030 A 
ATOM     15  F   UNL d   1     -48.010  28.831  36.039  0.00  0.00    -0.204 F 
ATOM     16  C   UNL d   1     -48.919  27.616  34.461  0.00  0.00     0.002 A 
ENDBRANCH   9  10
ENDBRANCH   7   9
BRANCH   4  17
ATOM     17  C   UNL d   1     -52.123  24.605  33.318  0.00  0.00     0.019 A 
ATOM     18  C   UNL d   1     -51.794  23.854  33.307  0.00  0.00     0.002 A 
ATOM     19  C   UNL d   1     -52.281  23.190  33.308  0.00  0.00     0.000 A 
ATOM     20  C   UNL d   1     -53.102  23.279  33.321  0.00  0.00     0.000 A 
ATOM     21  C   UNL d   1     -53.433  24.035  33.333  0.00  0.00     0.000 A 
ATOM     22  C   UNL d   1     -52.947  24.699  33.331  0.00  0.00     0.002 A 
ENDBRANCH   4  17
TORSDOF 3
ENDMDL
