MODEL 1
REMARK VINA RESULT:     -10.3      0.000      0.000
REMARK  4 active torsions:
REMARK  status: ('A' for Active; 'I' for Inactive)
REMARK    1  A    between atoms: C_2  and  C_1 
REMARK       I    between atoms: N_7  and  C_1 
REMARK    2  A    between atoms: N_6  and  C_5 
REMARK    3  A    between atoms: C_12  and  N_7 
REMARK    4  A    between atoms: C_8  and  C_9 
ROOT
ATOM      1  C   UNL d   1      51.235  34.337  53.025  0.00  0.00     0.021 A 
ATOM      2  C   UNL d   1      52.122  33.280  53.397  0.00  0.00     0.085 A 
ATOM      3  C   UNL d   1      51.370  33.537  53.174  0.00  0.00     0.021 A 
ATOM      4  C   UNL d   1      51.853  34.880  53.098  0.00  0.00     0.002 A 
ATOM      5  C   UNL d   1      52.597  34.621  53.318  0.00  0.00     0.002 A 
ATOM      6  C   UNL d   1      52.731  33.820  53.468  0.00  0.00     0.019 A 
ENDROOT
BRANCH   1   7
ATOM      7  C   UNL d   1      50.475  34.593  52.800  0.00  0.00     0.103 A 
ATOM      8  N   UNL d   1      50.030  35.051  53.312  0.00  0.00    -0.147 NA
ATOM      9  N   UNL d   1      49.277  35.303  53.086  0.00  0.00    -0.130 NA
ATOM     10  C   UNL d   1      48.976  35.092  52.346  0.00  0.00     0.170 A 
ATOM     11  C   UNL d   1      49.432  34.629  51.833  0.00  0.00     0.041 A 
ATOM     12  C   UNL d   1      50.174  34.383  52.061  0.00  0.00     0.024 A 
BRANCH  10  13
ATOM     13  N   UNL d   1      48.231  35.340  52.119  0.00  0.00    -0.284 N 
ATOM     14  C   UNL d   1      47.802  35.849  52.607  0.00  0.00     0.108 A 
ATOM     15  C   UNL d   1      47.049  36.101  52.381  0.00  0.00     0.142 A 
ATOM     16  O   UNL d   1      46.726  35.844  51.667  0.00  0.00    -0.300 OA
ATOM     17  C   UNL d   1      47.154  35.335  51.179  0.00  0.00     0.142 A 
ATOM     18  C   UNL d   1      47.907  35.083  51.405  0.00  0.00     0.108 A 
ENDBRANCH  10  13
ENDBRANCH   1   7
BRANCH   2  19
ATOM     19  N   UNL d   1      52.256  32.480  53.546  0.00  0.00    -0.208 NA
ATOM     20  C   UNL d   1      52.763  32.050  53.070  0.00  0.00     0.280 C 
ATOM     21  O   UNL d   1      53.142  32.421  52.437  0.00  0.00    -0.265 OA
BRANCH  20  22
ATOM     22  C   UNL d   1      52.897  31.255  53.219  0.00  0.00     0.069 A 
ATOM     23  C   UNL d   1      53.601  31.010  53.554  0.00  0.00     0.062 A 
ATOM     24 CL   UNL d   1      54.188  31.570  53.747  0.00  0.00    -0.082 Cl
ATOM     25  C   UNL d   1      53.736  30.210  53.704  0.00  0.00     0.012 A 
ATOM     26  C   UNL d   1      53.165  29.655  53.518  0.00  0.00     0.001 A 
ATOM     27  C   UNL d   1      52.453  29.896  53.179  0.00  0.00     0.000 A 
ATOM     28  C   UNL d   1      52.319  30.697  53.030  0.00  0.00     0.006 A 
ENDBRANCH  20  22
ENDBRANCH   2  19
TORSDOF 4
ENDMDL
MODEL 2
REMARK VINA RESULT:      -9.5      1.726      2.264
REMARK  4 active torsions:
REMARK  status: ('A' for Active; 'I' for Inactive)
REMARK    1  A    between atoms: C_2  and  C_1 
REMARK       I    between atoms: N_7  and  C_1 
REMARK    2  A    between atoms: N_6  and  C_5 
REMARK    3  A    between atoms: C_12  and  N_7 
REMARK    4  A    between atoms: C_8  and  C_9 
ROOT
ATOM      1  C   UNL d   1      50.277  34.526  52.521  0.00  0.00     0.021 A 
ATOM      2  C   UNL d   1      51.497  33.867  52.865  0.00  0.00     0.085 A 
ATOM      3  C   UNL d   1      50.794  34.235  53.094  0.00  0.00     0.021 A 
ATOM      4  C   UNL d   1      50.462  34.450  51.720  0.00  0.00     0.002 A 
ATOM      5  C   UNL d   1      51.160  34.085  51.499  0.00  0.00     0.002 A 
ATOM      6  C   UNL d   1      51.677  33.794  52.071  0.00  0.00     0.019 A 
ENDROOT
BRANCH   1   7
ATOM      7  C   UNL d   1      49.568  34.896  52.756  0.00  0.00     0.103 A 
ATOM      8  N   UNL d   1      49.534  35.303  53.464  0.00  0.00    -0.147 NA
ATOM      9  N   UNL d   1      48.830  35.668  53.693  0.00  0.00    -0.130 NA
ATOM     10  C   UNL d   1      48.164  35.622  53.207  0.00  0.00     0.170 A 
ATOM     11  C   UNL d   1      48.206  35.208  52.491  0.00  0.00     0.041 A 
ATOM     12  C   UNL d   1      48.902  34.849  52.270  0.00  0.00     0.024 A 
BRANCH  10  13
ATOM     13  N   UNL d   1      47.466  35.982  53.430  0.00  0.00    -0.284 N 
ATOM     14  C   UNL d   1      47.280  36.056  54.231  0.00  0.00     0.108 A 
ATOM     15  C   UNL d   1      46.575  36.419  54.460  0.00  0.00     0.142 A 
ATOM     16  O   UNL d   1      46.056  36.709  53.889  0.00  0.00    -0.300 OA
ATOM     17  C   UNL d   1      46.241  36.636  53.087  0.00  0.00     0.142 A 
ATOM     18  C   UNL d   1      46.946  36.272  52.858  0.00  0.00     0.108 A 
ENDBRANCH  10  13
ENDBRANCH   1   7
BRANCH   2  19
ATOM     19  N   UNL d   1      52.015  33.576  53.438  0.00  0.00    -0.208 NA
ATOM     20  C   UNL d   1      52.733  33.945  53.571  0.00  0.00     0.280 C 
ATOM     21  O   UNL d   1      52.939  34.611  53.129  0.00  0.00    -0.265 OA
BRANCH  20  22
ATOM     22  C   UNL d   1      53.248  33.655  54.140  0.00  0.00     0.069 A 
ATOM     23  C   UNL d   1      53.505  34.138  54.748  0.00  0.00     0.062 A 
ATOM     24 CL   UNL d   1      53.244  34.929  54.791  0.00  0.00    -0.082 Cl
ATOM     25  C   UNL d   1      54.023  33.847  55.320  0.00  0.00     0.012 A 
ATOM     26  C   UNL d   1      54.283  33.073  55.285  0.00  0.00     0.001 A 
ATOM     27  C   UNL d   1      54.027  32.582  54.674  0.00  0.00     0.000 A 
ATOM     28  C   UNL d   1      53.509  32.873  54.101  0.00  0.00     0.006 A 
ENDBRANCH  20  22
ENDBRANCH   2  19
TORSDOF 4
ENDMDL
MODEL 3
REMARK VINA RESULT:      -9.4      2.385      6.127
REMARK  4 active torsions:
REMARK  status: ('A' for Active; 'I' for Inactive)
REMARK    1  A    between atoms: C_2  and  C_1 
REMARK       I    between atoms: N_7  and  C_1 
REMARK    2  A    between atoms: N_6  and  C_5 
REMARK    3  A    between atoms: C_12  and  N_7 
REMARK    4  A    between atoms: C_8  and  C_9 
ROOT
ATOM      1  C   UNL d   1      50.657  34.241  52.558  0.00  0.00     0.021 A 
ATOM      2  C   UNL d   1      49.317  34.731  52.645  0.00  0.00     0.085 A 
ATOM      3  C   UNL d   1      50.035  34.545  53.007  0.00  0.00     0.021 A 
ATOM      4  C   UNL d   1      50.561  34.123  51.747  0.00  0.00     0.002 A 
ATOM      5  C   UNL d   1      49.847  34.308  51.392  0.00  0.00     0.002 A 
ATOM      6  C   UNL d   1      49.226  34.612  51.841  0.00  0.00     0.019 A 
ENDROOT
BRANCH   1   7
ATOM      7  C   UNL d   1      51.380  34.055  52.927  0.00  0.00     0.103 A 
ATOM      8  N   UNL d   1      51.514  33.298  53.207  0.00  0.00    -0.147 NA
ATOM      9  N   UNL d   1      52.232  33.118  53.572  0.00  0.00    -0.130 NA
ATOM     10  C   UNL d   1      52.811  33.700  53.653  0.00  0.00     0.170 A 
ATOM     11  C   UNL d   1      52.669  34.465  53.368  0.00  0.00     0.041 A 
ATOM     12  C   UNL d   1      51.959  34.637  53.009  0.00  0.00     0.024 A 
BRANCH  10  13
ATOM     13  N   UNL d   1      53.523  33.525  54.014  0.00  0.00    -0.284 N 
ATOM     14  C   UNL d   1      54.082  33.066  53.617  0.00  0.00     0.108 A 
ATOM     15  C   UNL d   1      54.802  32.887  53.978  0.00  0.00     0.142 A 
ATOM     16  O   UNL d   1      54.964  33.167  54.737  0.00  0.00    -0.300 OA
ATOM     17  C   UNL d   1      54.405  33.626  55.135  0.00  0.00     0.142 A 
ATOM     18  C   UNL d   1      53.685  33.805  54.773  0.00  0.00     0.108 A 
ENDBRANCH  10  13
ENDBRANCH   1   7
BRANCH   2  19
ATOM     19  N   UNL d   1      48.695  35.034  53.094  0.00  0.00    -0.208 NA
ATOM     20  C   UNL d   1      48.432  35.799  52.971  0.00  0.00     0.280 C 
ATOM     21  O   UNL d   1      48.792  36.267  52.394  0.00  0.00    -0.265 OA
BRANCH  20  22
ATOM     22  C   UNL d   1      47.814  36.101  53.417  0.00  0.00     0.069 A 
ATOM     23  C   UNL d   1      47.149  36.404  53.050  0.00  0.00     0.062 A 
ATOM     24 CL   UNL d   1      47.098  36.407  52.218  0.00  0.00    -0.082 Cl
ATOM     25  C   UNL d   1      46.527  36.708  53.499  0.00  0.00     0.012 A 
ATOM     26  C   UNL d   1      46.571  36.709  54.315  0.00  0.00     0.001 A 
ATOM     27  C   UNL d   1      47.239  36.404  54.691  0.00  0.00     0.000 A 
ATOM     28  C   UNL d   1      47.861  36.100  54.241  0.00  0.00     0.006 A 
ENDBRANCH  20  22
ENDBRANCH   2  19
TORSDOF 4
ENDMDL
MODEL 4
REMARK VINA RESULT:      -8.2      1.892      5.853
REMARK  4 active torsions:
REMARK  status: ('A' for Active; 'I' for Inactive)
REMARK    1  A    between atoms: C_2  and  C_1 
REMARK       I    between atoms: N_7  and  C_1 
REMARK    2  A    between atoms: N_6  and  C_5 
REMARK    3  A    between atoms: C_12  and  N_7 
REMARK    4  A    between atoms: C_8  and  C_9 
ROOT
ATOM      1  C   UNL d   1      52.490  33.262  53.085  0.00  0.00     0.021 A 
ATOM      2  C   UNL d   1      51.607  34.183  52.442  0.00  0.00     0.085 A 
ATOM      3  C   UNL d   1      51.806  33.409  52.649  0.00  0.00     0.021 A 
ATOM      4  C   UNL d   1      52.977  33.888  53.314  0.00  0.00     0.002 A 
ATOM      5  C   UNL d   1      52.776  34.654  53.107  0.00  0.00     0.002 A 
ATOM      6  C   UNL d   1      52.091  34.801  52.671  0.00  0.00     0.019 A 
ENDROOT
BRANCH   1   7
ATOM      7  C   UNL d   1      52.688  32.479  53.291  0.00  0.00     0.103 A 
ATOM      8  N   UNL d   1      52.358  31.853  52.881  0.00  0.00    -0.147 NA
ATOM      9  N   UNL d   1      52.556  31.079  53.089  0.00  0.00    -0.130 NA
ATOM     10  C   UNL d   1      53.084  30.940  53.708  0.00  0.00     0.170 A 
ATOM     11  C   UNL d   1      53.414  31.579  54.119  0.00  0.00     0.041 A 
ATOM     12  C   UNL d   1      53.215  32.340  53.910  0.00  0.00     0.024 A 
BRANCH  10  13
ATOM     13  N   UNL d   1      53.282  30.175  53.917  0.00  0.00    -0.284 N 
ATOM     14  C   UNL d   1      53.825  29.753  53.460  0.00  0.00     0.108 A 
ATOM     15  C   UNL d   1      54.028  28.980  53.667  0.00  0.00     0.142 A 
ATOM     16  O   UNL d   1      53.688  28.629  54.331  0.00  0.00    -0.300 OA
ATOM     17  C   UNL d   1      53.144  29.050  54.789  0.00  0.00     0.142 A 
ATOM     18  C   UNL d   1      52.942  29.823  54.581  0.00  0.00     0.108 A 
ENDBRANCH  10  13
ENDBRANCH   1   7
BRANCH   2  19
ATOM     19  N   UNL d   1      50.923  34.331  52.006  0.00  0.00    -0.208 NA
ATOM     20  C   UNL d   1      50.215  34.482  52.387  0.00  0.00     0.280 C 
ATOM     21  O   UNL d   1      50.188  34.486  53.212  0.00  0.00    -0.265 OA
BRANCH  20  22
ATOM     22  C   UNL d   1      49.535  34.629  51.953  0.00  0.00     0.069 A 
ATOM     23  C   UNL d   1      48.923  35.062  52.280  0.00  0.00     0.062 A 
ATOM     24 CL   UNL d   1      48.989  35.357  53.056  0.00  0.00    -0.082 Cl
ATOM     25  C   UNL d   1      48.238  35.210  51.844  0.00  0.00     0.012 A 
ATOM     26  C   UNL d   1      48.165  34.924  51.081  0.00  0.00     0.001 A 
ATOM     27  C   UNL d   1      48.780  34.486  50.748  0.00  0.00     0.000 A 
ATOM     28  C   UNL d   1      49.465  34.338  51.184  0.00  0.00     0.006 A 
ENDBRANCH  20  22
ENDBRANCH   2  19
TORSDOF 4
ENDMDL
