MODEL 1
REMARK VINA RESULT:      -6.7      0.000      0.000
REMARK  2 active torsions:
REMARK  status: ('A' for Active; 'I' for Inactive)
REMARK    1  A    between atoms: S_2  and  N_1 
REMARK    2  A    between atoms: C_8  and  S_2 
ROOT
ATOM      1  S   UNL d   1     -41.588-122.525 -52.947  0.00  0.00     0.273 S 
ATOM      2  O   UNL d   1     -41.876-123.285 -53.064  0.00  0.00    -0.200 OA
ATOM      3  O   UNL d   1     -41.300-121.759 -52.839  0.00  0.00    -0.200 OA
ENDROOT
BRANCH   1   4
ATOM      4  N   UNL d   1     -41.707-122.376 -53.750  0.00  0.00    -0.207 N 
ATOM      5  C   UNL d   1     -42.394-121.943 -53.922  0.00  0.00     0.148 A 
ATOM      6  N   UNL d   1     -42.674-121.703 -54.667  0.00  0.00    -0.198 NA
ATOM      7  C   UNL d   1     -42.351-121.829 -55.399  0.00  0.00     0.066 A 
ATOM      8  C   UNL d   1     -41.856-122.219 -54.457  0.00  0.00     0.169 A 
ATOM      9  C   UNL d   1     -41.662-122.228 -55.594  0.00  0.00     0.066 A 
ATOM     10  N   UNL d   1     -41.123-122.603 -55.091  0.00  0.00    -0.198 NA
ATOM     11  C   UNL d   1     -41.146-122.666 -54.273  0.00  0.00     0.148 A 
ENDBRANCH   1   4
BRANCH   1  12
ATOM     12  C   UNL d   1     -41.472-122.682 -52.146  0.00  0.00     0.104 A 
ATOM     13  C   UNL d   1     -41.579-122.083 -51.589  0.00  0.00     0.013 A 
ATOM     14  C   UNL d   1     -41.462-122.240 -50.787  0.00  0.00     0.001 A 
ATOM     15  C   UNL d   1     -41.239-122.996 -50.543  0.00  0.00     0.000 A 
ATOM     16  C   UNL d   1     -41.132-123.595 -51.101  0.00  0.00     0.001 A 
ATOM     17  C   UNL d   1     -41.125-123.145 -49.739  0.00  0.00     0.000 C 
ATOM     18  C   UNL d   1     -41.248-123.438 -51.902  0.00  0.00     0.013 A 
ENDBRANCH   1  12
TORSDOF 2
ENDMDL
MODEL 2
REMARK VINA RESULT:      -5.7      1.175      3.686
REMARK  2 active torsions:
REMARK  status: ('A' for Active; 'I' for Inactive)
REMARK    1  A    between atoms: S_2  and  N_1 
REMARK    2  A    between atoms: C_8  and  S_2 
ROOT
ATOM      1  S   UNL d   1     -41.645-122.515 -52.871  0.00  0.00     0.273 S 
ATOM      2  O   UNL d   1     -41.127-121.879 -52.835  0.00  0.00    -0.200 OA
ATOM      3  O   UNL d   1     -42.164-123.156 -52.898  0.00  0.00    -0.200 OA
ENDROOT
BRANCH   1   4
ATOM      4  N   UNL d   1     -41.493-122.660 -52.073  0.00  0.00    -0.207 N 
ATOM      5  C   UNL d   1     -41.365-123.458 -51.886  0.00  0.00     0.148 A 
ATOM      6  N   UNL d   1     -41.200-123.789 -51.142  0.00  0.00    -0.198 NA
ATOM      7  C   UNL d   1     -41.124-123.420 -50.425  0.00  0.00     0.066 A 
ATOM      8  C   UNL d   1     -41.354-122.838 -51.370  0.00  0.00     0.169 A 
ATOM      9  C   UNL d   1     -41.191-122.622 -50.248  0.00  0.00     0.066 A 
ATOM     10  N   UNL d   1     -41.353-121.993 -50.760  0.00  0.00    -0.198 NA
ATOM     11  C   UNL d   1     -41.487-122.013 -51.569  0.00  0.00     0.148 A 
ENDBRANCH   1   4
BRANCH   1  12
ATOM     12  C   UNL d   1     -41.791-122.363 -53.669  0.00  0.00     0.104 A 
ATOM     13  C   UNL d   1     -42.459-121.930 -53.890  0.00  0.00     0.013 A 
ATOM     14  C   UNL d   1     -42.605-121.778 -54.688  0.00  0.00     0.001 A 
ATOM     15  C   UNL d   1     -42.084-122.058 -55.264  0.00  0.00     0.000 A 
ATOM     16  C   UNL d   1     -41.416-122.491 -55.041  0.00  0.00     0.001 A 
ATOM     17  C   UNL d   1     -42.237-121.902 -56.059  0.00  0.00     0.000 C 
ATOM     18  C   UNL d   1     -41.270-122.643 -54.244  0.00  0.00     0.013 A 
ENDBRANCH   1  12
TORSDOF 2
ENDMDL
MODEL 3
REMARK VINA RESULT:      -5.5      1.708      2.439
REMARK  2 active torsions:
REMARK  status: ('A' for Active; 'I' for Inactive)
REMARK    1  A    between atoms: S_2  and  N_1 
REMARK    2  A    between atoms: C_8  and  S_2 
ROOT
ATOM      1  S   UNL d   1     -41.744-122.966 -50.744  0.00  0.00     0.273 S 
ATOM      2  O   UNL d   1     -41.128-123.502 -50.658  0.00  0.00    -0.200 OA
ATOM      3  O   UNL d   1     -42.362-122.427 -50.839  0.00  0.00    -0.200 OA
ENDROOT
BRANCH   1   4
ATOM      4  N   UNL d   1     -41.575-122.927 -51.550  0.00  0.00    -0.207 N 
ATOM      5  C   UNL d   1     -41.367-122.172 -51.823  0.00  0.00     0.148 A 
ATOM      6  N   UNL d   1     -41.166-121.945 -52.598  0.00  0.00    -0.198 NA
ATOM      7  C   UNL d   1     -41.123-122.398 -53.267  0.00  0.00     0.066 A 
ATOM      8  C   UNL d   1     -41.414-122.845 -52.267  0.00  0.00     0.169 A 
ATOM      9  C   UNL d   1     -41.267-123.201 -53.354  0.00  0.00     0.066 A 
ATOM     10  N   UNL d   1     -41.493-123.750 -52.778  0.00  0.00    -0.198 NA
ATOM     11  C   UNL d   1     -41.629-123.625 -51.978  0.00  0.00     0.148 A 
ENDBRANCH   1   4
BRANCH   1  12
ATOM     12  C   UNL d   1     -41.908-123.010 -49.936  0.00  0.00     0.104 A 
ATOM     13  C   UNL d   1     -42.647-122.779 -49.652  0.00  0.00     0.013 A 
ATOM     14  C   UNL d   1     -42.810-122.823 -48.845  0.00  0.00     0.001 A 
ATOM     15  C   UNL d   1     -42.234-123.098 -48.321  0.00  0.00     0.000 A 
ATOM     16  C   UNL d   1     -41.495-123.330 -48.606  0.00  0.00     0.001 A 
ATOM     17  C   UNL d   1     -42.406-123.139 -47.515  0.00  0.00     0.000 C 
ATOM     18  C   UNL d   1     -41.331-123.285 -49.414  0.00  0.00     0.013 A 
ENDBRANCH   1  12
TORSDOF 2
ENDMDL
MODEL 4
REMARK VINA RESULT:      -5.2      2.321      4.232
REMARK  2 active torsions:
REMARK  status: ('A' for Active; 'I' for Inactive)
REMARK    1  A    between atoms: S_2  and  N_1 
REMARK    2  A    between atoms: C_8  and  S_2 
ROOT
ATOM      1  S   UNL d   1     -41.671-123.046 -50.780  0.00  0.00     0.273 S 
ATOM      2  O   UNL d   1     -41.206-122.376 -50.681  0.00  0.00    -0.200 OA
ATOM      3  O   UNL d   1     -42.139-123.719 -50.870  0.00  0.00    -0.200 OA
ENDROOT
BRANCH   1   4
ATOM      4  N   UNL d   1     -41.803-123.052 -49.965  0.00  0.00    -0.207 N 
ATOM      5  C   UNL d   1     -42.553-122.783 -49.735  0.00  0.00     0.148 A 
ATOM      6  N   UNL d   1     -42.860-122.720 -48.965  0.00  0.00    -0.198 NA
ATOM      7  C   UNL d   1     -42.508-122.903 -48.259  0.00  0.00     0.066 A 
ATOM      8  C   UNL d   1     -41.966-123.041 -49.245  0.00  0.00     0.169 A 
ATOM      9  C   UNL d   1     -41.756-123.199 -48.121  0.00  0.00     0.066 A 
ATOM     10  N   UNL d   1     -41.166-123.384 -48.671  0.00  0.00    -0.198 NA
ATOM     11  C   UNL d   1     -41.190-123.318 -49.489  0.00  0.00     0.148 A 
ENDBRANCH   1   4
BRANCH   1  12
ATOM     12  C   UNL d   1     -41.534-123.032 -51.593  0.00  0.00     0.104 A 
ATOM     13  C   UNL d   1     -41.582-122.319 -52.007  0.00  0.00     0.013 A 
ATOM     14  C   UNL d   1     -41.446-122.305 -52.821  0.00  0.00     0.001 A 
ATOM     15  C   UNL d   1     -41.260-123.004 -53.220  0.00  0.00     0.000 A 
ATOM     16  C   UNL d   1     -41.212-123.716 -52.805  0.00  0.00     0.001 A 
ATOM     17  C   UNL d   1     -41.125-122.981 -54.034  0.00  0.00     0.000 C 
ATOM     18  C   UNL d   1     -41.349-123.730 -51.992  0.00  0.00     0.013 A 
ENDBRANCH   1  12
TORSDOF 2
ENDMDL
