MODEL 1
REMARK VINA RESULT:      55.1      0.000      0.000
REMARK  4 active torsions:
REMARK  status: ('A' for Active; 'I' for Inactive)
REMARK    1  A    between atoms: C_2  and  S_1 
REMARK    2  A    between atoms: N_3  and  S_1 
REMARK    3  A    between atoms: C_4  and  C_6 
REMARK       I    between atoms: N_7  and  C_4 
REMARK    4  A    between atoms: C_14  and  N_7 
ROOT
ATOM      1  C   UNL d   1     -55.184-101.435 -43.538  0.00  0.00     0.104 A 
ATOM      2  C   UNL d   1     -55.135-101.448 -42.717  0.00  0.00     0.018 A 
ATOM      3  C   UNL d   1     -54.898-102.139 -42.331  0.00  0.00     0.059 A 
ATOM      4  C   UNL d   1     -54.999-102.106 -43.977  0.00  0.00     0.012 A 
ATOM      5  C   UNL d   1     -54.711-102.814 -42.767  0.00  0.00     0.005 A 
ATOM      6  C   UNL d   1     -54.762-102.796 -43.591  0.00  0.00     0.001 A 
ATOM      7  C   UNL d   1     -55.048-102.092 -44.798  0.00  0.00     0.001 C 
ENDROOT
BRANCH   3   8
ATOM      8  C   UNL d   1     -54.846-102.162 -41.509  0.00  0.00     0.279 C 
ATOM      9  N   UNL d   1     -54.929-101.471 -41.074  0.00  0.00    -0.208 NA
ATOM     10  O   UNL d   1     -54.711-102.877 -41.127  0.00  0.00    -0.265 OA
BRANCH   9  11
ATOM     11  C   UNL d   1     -54.878-101.487 -40.251  0.00  0.00     0.087 A 
ATOM     12  C   UNL d   1     -54.941-102.203 -39.858  0.00  0.00     0.045 A 
ATOM     13  C   UNL d   1     -54.891-102.226 -39.031  0.00  0.00     0.121 A 
ATOM     14  O   UNL d   1     -54.933-102.851 -38.483  0.00  0.00    -0.299 OA
ATOM     15  C   UNL d   1     -54.776-101.525 -38.612  0.00  0.00     0.119 A 
ATOM     16  C   UNL d   1     -54.844-102.528 -37.732  0.00  0.00     0.304 A 
ATOM     17  O   UNL d   1     -54.746-101.705 -37.800  0.00  0.00    -0.300 OA
ATOM     18  C   UNL d   1     -54.712-100.795 -39.012  0.00  0.00     0.028 A 
ATOM     19  C   UNL d   1     -54.763-100.779 -39.835  0.00  0.00     0.021 A 
ENDBRANCH   9  11
ENDBRANCH   3   8
BRANCH   1  20
ATOM     20  S   UNL d   1     -55.419-100.750 -43.921  0.00  0.00     0.271 S 
ATOM     21  O   UNL d   1     -55.956-101.187 -44.373  0.00  0.00    -0.200 OA
ATOM     22  O   UNL d   1     -54.801-100.247 -43.400  0.00  0.00    -0.200 OA
BRANCH  20  23
ATOM     23  N   UNL d   1     -55.616-100.026 -44.273  0.00  0.00    -0.229 N 
ATOM     24  C   UNL d   1     -55.075 -99.490 -44.596  0.00  0.00     0.092 A 
ATOM     25  C   UNL d   1     -55.508 -98.849 -44.884  0.00  0.00     0.021 A 
ATOM     26  C   UNL d   1     -56.311 -98.996 -44.737  0.00  0.00     0.021 A 
ATOM     27  C   UNL d   1     -56.369 -99.718 -44.362  0.00  0.00     0.092 A 
ENDBRANCH  20  23
ENDBRANCH   1  20
TORSDOF 4
ENDMDL
MODEL 2
REMARK VINA RESULT:      55.8      1.898      5.439
REMARK  4 active torsions:
REMARK  status: ('A' for Active; 'I' for Inactive)
REMARK    1  A    between atoms: C_2  and  S_1 
REMARK    2  A    between atoms: N_3  and  S_1 
REMARK    3  A    between atoms: C_4  and  C_6 
REMARK       I    between atoms: N_7  and  C_4 
REMARK    4  A    between atoms: C_14  and  N_7 
ROOT
ATOM      1  C   UNL d   1     -54.819-101.432 -38.164  0.00  0.00     0.104 A 
ATOM      2  C   UNL d   1     -54.801-101.421 -38.987  0.00  0.00     0.018 A 
ATOM      3  C   UNL d   1     -54.812-102.132 -39.408  0.00  0.00     0.059 A 
ATOM      4  C   UNL d   1     -54.848-102.148 -37.759  0.00  0.00     0.012 A 
ATOM      5  C   UNL d   1     -54.841-102.851 -39.005  0.00  0.00     0.005 A 
ATOM      6  C   UNL d   1     -54.859-102.858 -38.180  0.00  0.00     0.001 A 
ATOM      7  C   UNL d   1     -54.866-102.159 -36.936  0.00  0.00     0.001 C 
ENDROOT
BRANCH   3   8
ATOM      8  C   UNL d   1     -54.794-102.130 -40.232  0.00  0.00     0.279 C 
ATOM      9  N   UNL d   1     -54.848-101.420 -40.641  0.00  0.00    -0.208 NA
ATOM     10  O   UNL d   1     -54.721-102.839 -40.641  0.00  0.00    -0.265 OA
BRANCH   9  11
ATOM     11  C   UNL d   1     -54.831-101.412 -41.466  0.00  0.00     0.087 A 
ATOM     12  C   UNL d   1     -54.786-100.696 -41.860  0.00  0.00     0.045 A 
ATOM     13  C   UNL d   1     -54.768-100.681 -42.689  0.00  0.00     0.121 A 
ATOM     14  O   UNL d   1     -54.725-100.058 -43.238  0.00  0.00    -0.299 OA
ATOM     15  C   UNL d   1     -54.796-101.391 -43.108  0.00  0.00     0.119 A 
ATOM     16  C   UNL d   1     -54.727-100.390 -43.990  0.00  0.00     0.304 A 
ATOM     17  O   UNL d   1     -54.771-101.218 -43.921  0.00  0.00    -0.300 OA
ATOM     18  C   UNL d   1     -54.842-102.121 -42.705  0.00  0.00     0.028 A 
ATOM     19  C   UNL d   1     -54.859-102.129 -41.881  0.00  0.00     0.021 A 
ENDBRANCH   9  11
ENDBRANCH   3   8
BRANCH   1  20
ATOM     20  S   UNL d   1     -54.807-100.728 -37.747  0.00  0.00     0.271 S 
ATOM     21  O   UNL d   1     -54.732-100.309 -38.456  0.00  0.00    -0.200 OA
ATOM     22  O   UNL d   1     -54.894-101.210 -36.931  0.00  0.00    -0.200 OA
BRANCH  20  23
ATOM     23  N   UNL d   1     -54.802-100.049 -37.273  0.00  0.00    -0.229 N 
ATOM     24  C   UNL d   1     -54.721-100.042 -36.449  0.00  0.00     0.092 A 
ATOM     25  C   UNL d   1     -54.745 -99.253 -36.207  0.00  0.00     0.021 A 
ATOM     26  C   UNL d   1     -54.840 -98.781 -36.883  0.00  0.00     0.021 A 
ATOM     27  C   UNL d   1     -54.874 -99.275 -37.532  0.00  0.00     0.092 A 
ENDBRANCH  20  23
ENDBRANCH   1  20
TORSDOF 4
ENDMDL
