MODEL 1
REMARK VINA RESULT:      -3.8      0.000      0.000
REMARK  7 active torsions:
REMARK  status: ('A' for Active; 'I' for Inactive)
REMARK    1  A    between atoms: C_2  and  S_1 
REMARK    2  A    between atoms: N_7  and  S_1 
REMARK    3  A    between atoms: C_5  and  C_6 
REMARK    4  A    between atoms: C_6  and  C_8 
REMARK    5  A    between atoms: C_15  and  N_7 
REMARK    6  A    between atoms: C_8  and  C_12 
REMARK    7  A    between atoms: C_18  and  C_15 
ROOT
ATOM      1  C   UNL d   1      58.212  -0.542  30.010  0.00  0.00     0.105 A 
ATOM      2  C   UNL d   1      58.105   0.263  29.932  0.00  0.00     0.012 A 
ATOM      3  C   UNL d   1      57.838  -0.955  30.639  0.00  0.00     0.013 A 
ATOM      4  C   UNL d   1      57.365  -0.542  31.172  0.00  0.00     0.001 A 
ATOM      5  C   UNL d   1      57.632   0.676  30.466  0.00  0.00     0.001 A 
ATOM      6  C   UNL d   1      57.263   0.288  31.081  0.00  0.00     0.000 A 
ATOM      7  C   UNL d   1      58.488   0.669  29.293  0.00  0.00     0.001 C 
ENDROOT
BRANCH   1   8
ATOM      8  S   UNL d   1      58.683  -0.954  29.479  0.00  0.00     0.285 S 
ATOM      9  O   UNL d   1      58.013  -1.137  29.026  0.00  0.00    -0.198 OA
ATOM     10  O   UNL d   1      59.362  -0.768  29.937  0.00  0.00    -0.198 OA
BRANCH   8  11
ATOM     11  N   UNL d   1      59.165  -1.375  28.935  0.00  0.00    -0.153 NA
BRANCH  11  12
ATOM     12  C   UNL d   1      59.262  -2.193  29.014  0.00  0.00     0.157 C 
BRANCH  12  13
ATOM     13  C   UNL d   1      59.700  -2.613  28.456  0.00  0.00     0.256 C 
ATOM     14  O   UNL d   1      59.971  -3.376  28.630  0.00  0.00    -0.281 OA
ENDBRANCH  12  13
ENDBRANCH  11  12
ENDBRANCH   8  11
ENDBRANCH   1   8
BRANCH   4  15
ATOM     15  C   UNL d   1      56.989  -0.959  31.804  0.00  0.00     0.006 C 
BRANCH  15  16
ATOM     16  C   UNL d   1      56.323  -0.630  32.154  0.00  0.00     0.070 C 
BRANCH  16  17
ATOM     17  C   UNL d   1      55.932  -1.033  32.769  0.00  0.00     0.211 C 
ATOM     18  O   UNL d   1      55.441  -0.609  33.279  0.00  0.00    -0.644 OA
ATOM     19  O   UNL d   1      56.034  -1.841  32.866  0.00  0.00    -0.644 OA
ENDBRANCH  16  17
ENDBRANCH  15  16
ENDBRANCH   4  15
TORSDOF 7
ENDMDL
MODEL 2
REMARK VINA RESULT:      -2.9      1.303      3.944
REMARK  7 active torsions:
REMARK  status: ('A' for Active; 'I' for Inactive)
REMARK    1  A    between atoms: C_2  and  S_1 
REMARK    2  A    between atoms: N_7  and  S_1 
REMARK    3  A    between atoms: C_5  and  C_6 
REMARK    4  A    between atoms: C_6  and  C_8 
REMARK    5  A    between atoms: C_15  and  N_7 
REMARK    6  A    between atoms: C_8  and  C_12 
REMARK    7  A    between atoms: C_18  and  C_15 
ROOT
ATOM      1  C   UNL d   1      58.479  -0.559  29.832  0.00  0.00     0.105 A 
ATOM      2  C   UNL d   1      58.905  -0.166  29.259  0.00  0.00     0.012 A 
ATOM      3  C   UNL d   1      58.434  -1.398  29.819  0.00  0.00     0.013 A 
ATOM      4  C   UNL d   1      58.823  -1.816  29.225  0.00  0.00     0.001 A 
ATOM      5  C   UNL d   1      59.294  -0.584  28.665  0.00  0.00     0.001 A 
ATOM      6  C   UNL d   1      59.259  -1.399  28.640  0.00  0.00     0.000 A 
ATOM      7  C   UNL d   1      58.943   0.682  29.282  0.00  0.00     0.001 C 
ENDROOT
BRANCH   1   8
ATOM      8  S   UNL d   1      58.092  -0.142  30.424  0.00  0.00     0.285 S 
ATOM      9  O   UNL d   1      58.788  -0.132  30.873  0.00  0.00    -0.198 OA
ATOM     10  O   UNL d   1      57.386  -0.151  29.969  0.00  0.00    -0.198 OA
BRANCH   8  11
ATOM     11  N   UNL d   1      57.695   0.285  31.029  0.00  0.00    -0.153 NA
BRANCH  11  12
ATOM     12  C   UNL d   1      57.210  -0.114  31.567  0.00  0.00     0.157 C 
BRANCH  12  13
ATOM     13  C   UNL d   1      56.735   0.312  32.090  0.00  0.00     0.256 C 
ATOM     14  O   UNL d   1      56.163  -0.078  32.544  0.00  0.00    -0.281 OA
ENDBRANCH  12  13
ENDBRANCH  11  12
ENDBRANCH   8  11
ENDBRANCH   1   8
BRANCH   4  15
ATOM     15  C   UNL d   1      58.777  -2.660  29.213  0.00  0.00     0.006 C 
BRANCH  15  16
ATOM     16  C   UNL d   1      58.827  -3.049  28.491  0.00  0.00     0.070 C 
BRANCH  16  17
ATOM     17  C   UNL d   1      58.886  -3.879  28.467  0.00  0.00     0.211 C 
ATOM     18  O   UNL d   1      59.633  -4.229  28.456  0.00  0.00    -0.644 OA
ATOM     19  O   UNL d   1      58.210  -4.342  28.455  0.00  0.00    -0.644 OA
ENDBRANCH  16  17
ENDBRANCH  15  16
ENDBRANCH   4  15
TORSDOF 7
ENDMDL
MODEL 3
REMARK VINA RESULT:      -2.9      0.890      1.152
REMARK  7 active torsions:
REMARK  status: ('A' for Active; 'I' for Inactive)
REMARK    1  A    between atoms: C_2  and  S_1 
REMARK    2  A    between atoms: N_7  and  S_1 
REMARK    3  A    between atoms: C_5  and  C_6 
REMARK    4  A    between atoms: C_6  and  C_8 
REMARK    5  A    between atoms: C_15  and  N_7 
REMARK    6  A    between atoms: C_8  and  C_12 
REMARK    7  A    between atoms: C_18  and  C_15 
ROOT
ATOM      1  C   UNL d   1      57.958  -0.198  30.708  0.00  0.00     0.105 A 
ATOM      2  C   UNL d   1      58.422   0.357  31.084  0.00  0.00     0.012 A 
ATOM      3  C   UNL d   1      57.239  -0.451  31.063  0.00  0.00     0.013 A 
ATOM      4  C   UNL d   1      57.011  -0.135  31.789  0.00  0.00     0.001 A 
ATOM      5  C   UNL d   1      58.194   0.673  31.809  0.00  0.00     0.001 A 
ATOM      6  C   UNL d   1      57.499   0.437  32.165  0.00  0.00     0.000 A 
ATOM      7  C   UNL d   1      59.146   0.605  30.715  0.00  0.00     0.001 C 
ENDROOT
BRANCH   1   8
ATOM      8  S   UNL d   1      58.186  -0.513  29.985  0.00  0.00     0.285 S 
ATOM      9  O   UNL d   1      58.486  -1.182  30.371  0.00  0.00    -0.198 OA
ATOM     10  O   UNL d   1      57.882   0.165  29.594  0.00  0.00    -0.198 OA
BRANCH   8  11
ATOM     11  N   UNL d   1      58.419  -0.835  29.245  0.00  0.00    -0.153 NA
BRANCH  11  12
ATOM     12  C   UNL d   1      58.854  -1.538  29.218  0.00  0.00     0.157 C 
BRANCH  12  13
ATOM     13  C   UNL d   1      59.009  -1.900  28.493  0.00  0.00     0.256 C 
ATOM     14  O   UNL d   1      59.524  -2.548  28.455  0.00  0.00    -0.281 OA
ENDBRANCH  12  13
ENDBRANCH  11  12
ENDBRANCH   8  11
ENDBRANCH   1   8
BRANCH   4  15
ATOM     15  C   UNL d   1      56.288  -0.391  32.144  0.00  0.00     0.006 C 
BRANCH  15  16
ATOM     16  C   UNL d   1      56.319  -0.789  32.861  0.00  0.00     0.070 C 
BRANCH  16  17
ATOM     17  C   UNL d   1      55.619  -1.070  33.214  0.00  0.00     0.211 C 
ATOM     18  O   UNL d   1      55.439  -1.874  33.167  0.00  0.00    -0.644 OA
ATOM     19  O   UNL d   1      55.116  -0.553  33.604  0.00  0.00    -0.644 OA
ENDBRANCH  16  17
ENDBRANCH  15  16
ENDBRANCH   4  15
TORSDOF 7
ENDMDL
MODEL 4
REMARK VINA RESULT:      -2.4      2.143      4.658
REMARK  7 active torsions:
REMARK  status: ('A' for Active; 'I' for Inactive)
REMARK    1  A    between atoms: C_2  and  S_1 
REMARK    2  A    between atoms: N_7  and  S_1 
REMARK    3  A    between atoms: C_5  and  C_6 
REMARK    4  A    between atoms: C_6  and  C_8 
REMARK    5  A    between atoms: C_15  and  N_7 
REMARK    6  A    between atoms: C_8  and  C_12 
REMARK    7  A    between atoms: C_18  and  C_15 
ROOT
ATOM      1  C   UNL d   1      56.999   0.112  32.260  0.00  0.00     0.105 A 
ATOM      2  C   UNL d   1      57.629   0.467  32.638  0.00  0.00     0.012 A 
ATOM      3  C   UNL d   1      57.040  -0.042  31.435  0.00  0.00     0.013 A 
ATOM      4  C   UNL d   1      57.717   0.166  31.015  0.00  0.00     0.001 A 
ATOM      5  C   UNL d   1      58.306   0.675  32.218  0.00  0.00     0.001 A 
ATOM      6  C   UNL d   1      58.359   0.531  31.417  0.00  0.00     0.000 A 
ATOM      7  C   UNL d   1      57.576   0.618  33.472  0.00  0.00     0.001 C 
ENDROOT
BRANCH   1   8
ATOM      8  S   UNL d   1      56.324  -0.095  32.679  0.00  0.00     0.285 S 
ATOM      9  O   UNL d   1      56.623  -0.862  32.781  0.00  0.00    -0.198 OA
ATOM     10  O   UNL d   1      56.020   0.681  32.575  0.00  0.00    -0.198 OA
BRANCH   8  11
ATOM     11  N   UNL d   1      55.633  -0.308  33.107  0.00  0.00    -0.153 NA
BRANCH  11  12
ATOM     12  C   UNL d   1      55.143   0.280  33.420  0.00  0.00     0.157 C 
BRANCH  12  13
ATOM     13  C   UNL d   1      54.458   0.071  33.830  0.00  0.00     0.256 C 
ATOM     14  O   UNL d   1      54.085   0.623  34.323  0.00  0.00    -0.281 OA
ENDBRANCH  12  13
ENDBRANCH  11  12
ENDBRANCH   8  11
ENDBRANCH   1   8
BRANCH   4  15
ATOM     15  C   UNL d   1      57.756   0.010  30.185  0.00  0.00     0.006 C 
BRANCH  15  16
ATOM     16  C   UNL d   1      58.477   0.092  29.801  0.00  0.00     0.070 C 
BRANCH  16  17
ATOM     17  C   UNL d   1      58.530  -0.035  28.979  0.00  0.00     0.211 C 
ATOM     18  O   UNL d   1      59.274  -0.084  28.627  0.00  0.00    -0.644 OA
ATOM     19  O   UNL d   1      57.850  -0.111  28.528  0.00  0.00    -0.644 OA
ENDBRANCH  16  17
ENDBRANCH  15  16
ENDBRANCH   4  15
TORSDOF 7
ENDMDL
MODEL 5
REMARK VINA RESULT:      -1.0      8.226      9.524
REMARK  7 active torsions:
REMARK  status: ('A' for Active; 'I' for Inactive)
REMARK    1  A    between atoms: C_2  and  S_1 
REMARK    2  A    between atoms: N_7  and  S_1 
REMARK    3  A    between atoms: C_5  and  C_6 
REMARK    4  A    between atoms: C_6  and  C_8 
REMARK    5  A    between atoms: C_15  and  N_7 
REMARK    6  A    between atoms: C_8  and  C_12 
REMARK    7  A    between atoms: C_18  and  C_15 
ROOT
ATOM      1  C   UNL d   1      60.047  -8.053  35.509  0.00  0.00     0.105 A 
ATOM      2  C   UNL d   1      59.287  -8.260  35.721  0.00  0.00     0.012 A 
ATOM      3  C   UNL d   1      60.448  -8.488  34.912  0.00  0.00     0.013 A 
ATOM      4  C   UNL d   1      60.068  -9.121  34.546  0.00  0.00     0.001 A 
ATOM      5  C   UNL d   1      58.907  -8.892  35.354  0.00  0.00     0.001 A 
ATOM      6  C   UNL d   1      59.285  -9.323  34.773  0.00  0.00     0.000 A 
ATOM      7  C   UNL d   1      58.892  -7.813  36.325  0.00  0.00     0.001 C 
ENDROOT
BRANCH   1   8
ATOM      8  S   UNL d   1      60.425  -7.422  35.875  0.00  0.00     0.285 S 
ATOM      9  O   UNL d   1      60.873  -7.953  36.328  0.00  0.00    -0.198 OA
ATOM     10  O   UNL d   1      59.972  -6.884  35.415  0.00  0.00    -0.198 OA
BRANCH   8  11
ATOM     11  N   UNL d   1      60.813  -6.777  36.248  0.00  0.00    -0.153 NA
BRANCH  11  12
ATOM     12  C   UNL d   1      60.803  -6.029  35.897  0.00  0.00     0.157 C 
BRANCH  12  13
ATOM     13  C   UNL d   1      61.130  -5.383  36.292  0.00  0.00     0.256 C 
ATOM     14  O   UNL d   1      61.073  -4.624  35.965  0.00  0.00    -0.281 OA
ENDBRANCH  12  13
ENDBRANCH  11  12
ENDBRANCH   8  11
ENDBRANCH   1   8
BRANCH   4  15
ATOM     15  C   UNL d   1      60.473  -9.557  33.946  0.00  0.00     0.006 C 
BRANCH  15  16
ATOM     16  C   UNL d   1      60.215  -9.495  33.169  0.00  0.00     0.070 C 
BRANCH  16  17
ATOM     17  C   UNL d   1      60.750  -9.283  32.566  0.00  0.00     0.211 C 
ATOM     18  O   UNL d   1      60.891  -9.814  31.951  0.00  0.00    -0.644 OA
ATOM     19  O   UNL d   1      61.130  -8.558  32.586  0.00  0.00    -0.644 OA
ENDBRANCH  16  17
ENDBRANCH  15  16
ENDBRANCH   4  15
TORSDOF 7
ENDMDL
