MODEL 1
REMARK VINA RESULT:      -9.7      0.000      0.000
REMARK  3 active torsions:
REMARK  status: ('A' for Active; 'I' for Inactive)
REMARK    1  A    between atoms: N_2  and  S_1 
REMARK    2  A    between atoms: C_5  and  S_1 
REMARK    3  A    between atoms: C_4  and  C_3 
ROOT
ATOM      1  N   UNL d   1      53.335  31.450  53.495  0.00  0.00    -0.223 N 
ATOM      2  C   UNL d   1      52.626  31.581  53.083  0.00  0.00     0.127 A 
ATOM      3  S   UNL d   1      52.357  30.853  52.804  0.00  0.00    -0.065 SA
ATOM      4  C   UNL d   1      53.501  30.641  53.469  0.00  0.00     0.099 A 
ATOM      5  C   UNL d   1      52.898  30.272  53.043  0.00  0.00     0.057 A 
ENDROOT
BRANCH   1   6
ATOM      6  S   UNL d   1      53.798  32.030  53.869  0.00  0.00     0.272 S 
ATOM      7  O   UNL d   1      54.332  32.471  53.435  0.00  0.00    -0.200 OA
ATOM      8  O   UNL d   1      53.710  32.154  54.678  0.00  0.00    -0.200 OA
BRANCH   6   9
ATOM      9  C   UNL d   1      54.237  32.595  54.276  0.00  0.00     0.104 A 
ATOM     10  C   UNL d   1      54.826  33.022  53.893  0.00  0.00     0.014 A 
ATOM     11  C   UNL d   1      55.262  33.585  54.301  0.00  0.00     0.012 A 
ATOM     12  C   UNL d   1      55.109  33.724  55.103  0.00  0.00     0.058 A 
ATOM     13  C   UNL d   1      54.513  33.290  55.490  0.00  0.00     0.012 A 
ATOM     14 CL   UNL d   1      55.544  34.286  55.516  0.00  0.00    -0.082 Cl
ATOM     15  C   UNL d   1      54.079  32.727  55.074  0.00  0.00     0.014 A 
ENDBRANCH   6   9
ENDBRANCH   1   6
BRANCH   2  16
ATOM     16  C   UNL d   1      52.259  32.306  52.973  0.00  0.00     0.123 A 
ATOM     17  O   UNL d   1      52.449  32.865  52.397  0.00  0.00    -0.303 OA
ATOM     18  C   UNL d   1      51.943  33.509  52.487  0.00  0.00     0.123 A 
ATOM     19  C   UNL d   1      51.436  33.351  53.120  0.00  0.00     0.029 A 
ATOM     20  C   UNL d   1      51.634  32.606  53.421  0.00  0.00     0.029 A 
ENDBRANCH   2  16
TORSDOF 3
ENDMDL
MODEL 2
REMARK VINA RESULT:      -9.7      1.532      3.040
REMARK  3 active torsions:
REMARK  status: ('A' for Active; 'I' for Inactive)
REMARK    1  A    between atoms: N_2  and  S_1 
REMARK    2  A    between atoms: C_5  and  S_1 
REMARK    3  A    between atoms: C_4  and  C_3 
ROOT
ATOM      1  N   UNL d   1      52.866  31.630  53.193  0.00  0.00    -0.223 N 
ATOM      2  C   UNL d   1      53.552  31.601  53.658  0.00  0.00     0.127 A 
ATOM      3  S   UNL d   1      53.851  30.833  53.623  0.00  0.00    -0.065 SA
ATOM      4  C   UNL d   1      52.742  30.879  52.872  0.00  0.00     0.099 A 
ATOM      5  C   UNL d   1      53.349  30.386  53.136  0.00  0.00     0.057 A 
ENDROOT
BRANCH   1   6
ATOM      6  S   UNL d   1      52.385  32.297  53.071  0.00  0.00     0.272 S 
ATOM      7  O   UNL d   1      52.589  32.852  52.507  0.00  0.00    -0.200 OA
ATOM      8  O   UNL d   1      51.704  32.390  53.525  0.00  0.00    -0.200 OA
BRANCH   6   9
ATOM      9  C   UNL d   1      51.883  32.943  52.982  0.00  0.00     0.104 A 
ATOM     10  C   UNL d   1      52.056  33.533  52.436  0.00  0.00     0.014 A 
ATOM     11  C   UNL d   1      51.554  34.177  52.349  0.00  0.00     0.012 A 
ATOM     12  C   UNL d   1      50.870  34.233  52.811  0.00  0.00     0.058 A 
ATOM     13  C   UNL d   1      50.696  33.634  53.364  0.00  0.00     0.012 A 
ATOM     14 CL   UNL d   1      50.365  34.876  52.727  0.00  0.00    -0.082 Cl
ATOM     15  C   UNL d   1      51.204  32.992  53.446  0.00  0.00     0.014 A 
ENDBRANCH   6   9
ENDBRANCH   1   6
BRANCH   2  16
ATOM     16  C   UNL d   1      53.877  32.226  54.079  0.00  0.00     0.123 A 
ATOM     17  O   UNL d   1      53.661  32.466  54.839  0.00  0.00    -0.303 OA
ATOM     18  C   UNL d   1      54.126  33.112  55.046  0.00  0.00     0.123 A 
ATOM     19  C   UNL d   1      54.634  33.277  54.415  0.00  0.00     0.029 A 
ATOM     20  C   UNL d   1      54.478  32.727  53.817  0.00  0.00     0.029 A 
ENDBRANCH   2  16
TORSDOF 3
ENDMDL
MODEL 3
REMARK VINA RESULT:      -9.1      1.969      3.481
REMARK  3 active torsions:
REMARK  status: ('A' for Active; 'I' for Inactive)
REMARK    1  A    between atoms: N_2  and  S_1 
REMARK    2  A    between atoms: C_5  and  S_1 
REMARK    3  A    between atoms: C_4  and  C_3 
ROOT
ATOM      1  N   UNL d   1      53.450  33.668  54.387  0.00  0.00    -0.223 N 
ATOM      2  C   UNL d   1      53.905  32.977  54.447  0.00  0.00     0.127 A 
ATOM      3  S   UNL d   1      54.486  33.104  55.019  0.00  0.00    -0.065 SA
ATOM      4  C   UNL d   1      53.751  34.221  54.922  0.00  0.00     0.099 A 
ATOM      5  C   UNL d   1      54.390  33.875  55.312  0.00  0.00     0.057 A 
ENDROOT
BRANCH   1   6
ATOM      6  S   UNL d   1      52.804  33.785  53.877  0.00  0.00     0.272 S 
ATOM      7  O   UNL d   1      52.928  34.009  53.101  0.00  0.00    -0.200 OA
ATOM      8  O   UNL d   1      52.041  33.672  54.165  0.00  0.00    -0.200 OA
BRANCH   6   9
ATOM      9  C   UNL d   1      52.138  33.890  53.406  0.00  0.00     0.104 A 
ATOM     10  C   UNL d   1      52.203  34.239  52.664  0.00  0.00     0.014 A 
ATOM     11  C   UNL d   1      51.536  34.343  52.195  0.00  0.00     0.012 A 
ATOM     12  C   UNL d   1      50.795  34.096  52.470  0.00  0.00     0.058 A 
ATOM     13  C   UNL d   1      50.732  33.742  53.222  0.00  0.00     0.012 A 
ATOM     14 CL   UNL d   1      50.126  34.198  52.003  0.00  0.00    -0.082 Cl
ATOM     15  C   UNL d   1      51.404  33.641  53.686  0.00  0.00     0.014 A 
ENDBRANCH   6   9
ENDBRANCH   1   6
BRANCH   2  16
ATOM     16  C   UNL d   1      53.798  32.289  54.014  0.00  0.00     0.123 A 
ATOM     17  O   UNL d   1      53.284  31.670  54.203  0.00  0.00    -0.303 OA
ATOM     18  C   UNL d   1      53.352  31.093  53.621  0.00  0.00     0.123 A 
ATOM     19  C   UNL d   1      53.909  31.351  53.067  0.00  0.00     0.029 A 
ATOM     20  C   UNL d   1      54.183  32.091  53.312  0.00  0.00     0.029 A 
ENDBRANCH   2  16
TORSDOF 3
ENDMDL
MODEL 4
REMARK VINA RESULT:      -8.5      1.830      3.383
REMARK  3 active torsions:
REMARK  status: ('A' for Active; 'I' for Inactive)
REMARK    1  A    between atoms: N_2  and  S_1 
REMARK    2  A    between atoms: C_5  and  S_1 
REMARK    3  A    between atoms: C_4  and  C_3 
ROOT
ATOM      1  N   UNL d   1      52.787  33.554  53.358  0.00  0.00    -0.223 N 
ATOM      2  C   UNL d   1      53.194  34.024  53.908  0.00  0.00     0.127 A 
ATOM      3  S   UNL d   1      52.961  34.807  53.794  0.00  0.00    -0.065 SA
ATOM      4  C   UNL d   1      52.305  34.049  52.906  0.00  0.00     0.099 A 
ATOM      5  C   UNL d   1      52.411  34.822  53.173  0.00  0.00     0.057 A 
ENDROOT
BRANCH   1   6
ATOM      6  S   UNL d   1      52.853  32.730  53.276  0.00  0.00     0.272 S 
ATOM      7  O   UNL d   1      53.483  32.407  52.867  0.00  0.00    -0.200 OA
ATOM      8  O   UNL d   1      52.278  32.246  53.612  0.00  0.00    -0.200 OA
BRANCH   6   9
ATOM      9  C   UNL d   1      52.882  31.909  53.218  0.00  0.00     0.104 A 
ATOM     10  C   UNL d   1      53.563  31.534  52.950  0.00  0.00     0.014 A 
ATOM     11  C   UNL d   1      53.590  30.716  52.893  0.00  0.00     0.012 A 
ATOM     12  C   UNL d   1      52.929  30.265  53.105  0.00  0.00     0.058 A 
ATOM     13  C   UNL d   1      52.240  30.647  53.376  0.00  0.00     0.012 A 
ATOM     14 CL   UNL d   1      52.951  29.445  53.050  0.00  0.00    -0.082 Cl
ATOM     15  C   UNL d   1      52.220  31.468  53.431  0.00  0.00     0.014 A 
ENDBRANCH   6   9
ENDBRANCH   1   6
BRANCH   2  16
ATOM     16  C   UNL d   1      53.731  33.758  54.467  0.00  0.00     0.123 A 
ATOM     17  O   UNL d   1      53.547  33.409  55.192  0.00  0.00    -0.303 OA
ATOM     18  C   UNL d   1      54.252  33.227  55.576  0.00  0.00     0.123 A 
ATOM     19  C   UNL d   1      54.878  33.462  55.090  0.00  0.00     0.029 A 
ATOM     20  C   UNL d   1      54.553  33.790  54.404  0.00  0.00     0.029 A 
ENDBRANCH   2  16
TORSDOF 3
ENDMDL
MODEL 5
REMARK VINA RESULT:      -8.3      1.803      2.941
REMARK  3 active torsions:
REMARK  status: ('A' for Active; 'I' for Inactive)
REMARK    1  A    between atoms: N_2  and  S_1 
REMARK    2  A    between atoms: C_5  and  S_1 
REMARK    3  A    between atoms: C_4  and  C_3 
ROOT
ATOM      1  N   UNL d   1      53.983  33.054  54.414  0.00  0.00    -0.223 N 
ATOM      2  C   UNL d   1      53.561  33.765  54.338  0.00  0.00     0.127 A 
ATOM      3  S   UNL d   1      53.971  34.348  54.755  0.00  0.00    -0.065 SA
ATOM      4  C   UNL d   1      54.651  33.200  54.876  0.00  0.00     0.099 A 
ATOM      5  C   UNL d   1      54.645  33.997  55.087  0.00  0.00     0.057 A 
ENDROOT
BRANCH   1   6
ATOM      6  S   UNL d   1      53.770  32.323  54.082  0.00  0.00     0.272 S 
ATOM      7  O   UNL d   1      53.923  32.169  53.294  0.00  0.00    -0.200 OA
ATOM      8  O   UNL d   1      53.404  31.758  54.556  0.00  0.00    -0.200 OA
BRANCH   6   9
ATOM      9  C   UNL d   1      53.544  31.586  53.791  0.00  0.00     0.104 A 
ATOM     10  C   UNL d   1      53.575  31.428  52.985  0.00  0.00     0.014 A 
ATOM     11  C   UNL d   1      53.348  30.693  52.698  0.00  0.00     0.012 A 
ATOM     12  C   UNL d   1      53.087  30.107  53.222  0.00  0.00     0.058 A 
ATOM     13  C   UNL d   1      53.057  30.269  54.039  0.00  0.00     0.012 A 
ATOM     14 CL   UNL d   1      52.860  29.370  52.939  0.00  0.00    -0.082 Cl
ATOM     15  C   UNL d   1      53.285  31.009  54.319  0.00  0.00     0.014 A 
ENDBRANCH   6   9
ENDBRANCH   1   6
BRANCH   2  16
ATOM     16  C   UNL d   1      52.862  33.870  53.924  0.00  0.00     0.123 A 
ATOM     17  O   UNL d   1      52.107  33.657  54.181  0.00  0.00    -0.303 OA
ATOM     18  C   UNL d   1      51.568  33.862  53.593  0.00  0.00     0.123 A 
ATOM     19  C   UNL d   1      51.987  34.204  52.968  0.00  0.00     0.029 A 
ATOM     20  C   UNL d   1      52.788  34.208  53.175  0.00  0.00     0.029 A 
ENDBRANCH   2  16
TORSDOF 3
ENDMDL
