MODEL 1
REMARK VINA RESULT:      -1.4      0.000      0.000
REMARK  2 active torsions:
REMARK  status: ('A' for Active; 'I' for Inactive)
REMARK    1  A    between atoms: C_7  and  C_1 
REMARK    2  A    between atoms: S_13  and  C_5 
ROOT
ATOM      1  C   UNL d   1      31.442  17.077 -24.087  0.00  0.00     0.025 A 
ATOM      2  C   UNL d   1      31.633  17.789 -24.455  0.00  0.00     0.106 A 
ATOM      3  C   UNL d   1      30.649  16.865 -23.993  0.00  0.00     0.092 A 
ATOM      4  N   UNL d   1      30.248  18.076 -24.635  0.00  0.00    -0.218 NA
ATOM      5  C   UNL d   1      30.052  17.364 -24.267  0.00  0.00     0.118 A 
ATOM      6  C   UNL d   1      31.036  18.288 -24.729  0.00  0.00     0.194 A 
ATOM      7  C   UNL d   1      32.428  18.001 -24.549  0.00  0.00     0.104 C 
ATOM      8  C   UNL d   1      30.460  16.155 -23.626  0.00  0.00     0.103 C 
ATOM      9  N   UNL d   1      33.208  18.210 -24.641  0.00  0.00    -0.191 NA
ATOM     10  N   UNL d   1      30.268  15.453 -23.263  0.00  0.00    -0.191 NA
ATOM     11  N   UNL d   1      31.233  19.000 -25.097  0.00  0.00    -0.126 N 
ENDROOT
BRANCH   1  12
ATOM     12  C   UNL d   1      32.034  16.581 -23.815  0.00  0.00     0.012 A 
ATOM     13  C   UNL d   1      32.304  15.960 -24.288  0.00  0.00     0.058 A 
ATOM     14 CL   UNL d   1      31.974  15.844 -25.030  0.00  0.00    -0.082 Cl
ATOM     15  C   UNL d   1      32.909  15.454 -24.010  0.00  0.00     0.011 A 
ATOM     16  C   UNL d   1      33.233  15.578 -23.264  0.00  0.00     0.001 A 
ATOM     17  C   UNL d   1      32.969  16.194 -22.792  0.00  0.00     0.000 A 
ATOM     18  C   UNL d   1      32.363  16.700 -23.069  0.00  0.00     0.001 A 
ENDBRANCH   1  12
BRANCH   5  19
ATOM     19  S   UNL d   1      29.258  17.148 -24.171  0.00  0.00    -0.093 SA
ATOM     20  C   UNL d   1      28.655  17.682 -24.348  0.00  0.00     0.076 C 
ENDBRANCH   5  19
TORSDOF 2
ENDMDL
MODEL 2
REMARK VINA RESULT:      -0.3      1.363      2.838
REMARK  2 active torsions:
REMARK  status: ('A' for Active; 'I' for Inactive)
REMARK    1  A    between atoms: C_7  and  C_1 
REMARK    2  A    between atoms: S_13  and  C_5 
ROOT
ATOM      1  C   UNL d   1      30.545  17.033 -23.975  0.00  0.00     0.025 A 
ATOM      2  C   UNL d   1      31.262  16.785 -23.652  0.00  0.00     0.106 A 
ATOM      3  C   UNL d   1      30.524  17.705 -24.457  0.00  0.00     0.092 A 
ATOM      4  N   UNL d   1      31.932  17.872 -24.289  0.00  0.00    -0.218 NA
ATOM      5  C   UNL d   1      31.218  18.124 -24.613  0.00  0.00     0.118 A 
ATOM      6  C   UNL d   1      31.955  17.204 -23.809  0.00  0.00     0.194 A 
ATOM      7  C   UNL d   1      31.283  16.113 -23.170  0.00  0.00     0.104 C 
ATOM      8  C   UNL d   1      29.810  17.950 -24.777  0.00  0.00     0.103 C 
ATOM      9  N   UNL d   1      31.305  15.453 -22.696  0.00  0.00    -0.191 NA
ATOM     10  N   UNL d   1      29.103  18.198 -25.097  0.00  0.00    -0.191 NA
ATOM     11  N   UNL d   1      32.670  16.951 -23.484  0.00  0.00    -0.126 N 
ENDROOT
BRANCH   1  12
ATOM     12  C   UNL d   1      29.858  16.618 -23.819  0.00  0.00     0.012 A 
ATOM     13  C   UNL d   1      29.655  15.965 -24.283  0.00  0.00     0.058 A 
ATOM     14 CL   UNL d   1      30.146  15.737 -24.899  0.00  0.00    -0.082 Cl
ATOM     15  C   UNL d   1      28.951  15.540 -24.124  0.00  0.00     0.011 A 
ATOM     16  C   UNL d   1      28.465  15.776 -23.504  0.00  0.00     0.001 A 
ATOM     17  C   UNL d   1      28.662  16.424 -23.042  0.00  0.00     0.000 A 
ATOM     18  C   UNL d   1      29.366  16.849 -23.201  0.00  0.00     0.001 A 
ENDBRANCH   1  12
BRANCH   5  19
ATOM     19  S   UNL d   1      31.191  18.796 -25.097  0.00  0.00    -0.093 SA
ATOM     20  C   UNL d   1      31.790  19.363 -25.056  0.00  0.00     0.076 C 
ENDBRANCH   5  19
TORSDOF 2
ENDMDL
MODEL 3
REMARK VINA RESULT:      -0.1      1.404      1.801
REMARK  2 active torsions:
REMARK  status: ('A' for Active; 'I' for Inactive)
REMARK    1  A    between atoms: C_7  and  C_1 
REMARK    2  A    between atoms: S_13  and  C_5 
ROOT
ATOM      1  C   UNL d   1      30.838  17.246 -24.156  0.00  0.00     0.025 A 
ATOM      2  C   UNL d   1      30.375  17.796 -24.559  0.00  0.00     0.106 A 
ATOM      3  C   UNL d   1      30.496  16.544 -23.886  0.00  0.00     0.092 A 
ATOM      4  N   UNL d   1      29.236  16.948 -24.422  0.00  0.00    -0.218 NA
ATOM      5  C   UNL d   1      29.696  16.395 -24.018  0.00  0.00     0.118 A 
ATOM      6  C   UNL d   1      29.574  17.647 -24.691  0.00  0.00     0.194 A 
ATOM      7  C   UNL d   1      30.716  18.500 -24.830  0.00  0.00     0.104 C 
ATOM      8  C   UNL d   1      30.960  15.998 -23.485  0.00  0.00     0.103 C 
ATOM      9  N   UNL d   1      31.051  19.191 -25.097  0.00  0.00    -0.191 NA
ATOM     10  N   UNL d   1      31.415  15.453 -23.087  0.00  0.00    -0.191 NA
ATOM     11  N   UNL d   1      29.114  18.201 -25.095  0.00  0.00    -0.126 N 
ENDROOT
BRANCH   1  12
ATOM     12  C   UNL d   1      31.632  17.394 -24.025  0.00  0.00     0.012 A 
ATOM     13  C   UNL d   1      31.868  17.831 -23.365  0.00  0.00     0.058 A 
ATOM     14 CL   UNL d   1      31.302  18.115 -22.843  0.00  0.00    -0.082 Cl
ATOM     15  C   UNL d   1      32.680  17.983 -23.230  0.00  0.00     0.011 A 
ATOM     16  C   UNL d   1      33.241  17.694 -23.759  0.00  0.00     0.001 A 
ATOM     17  C   UNL d   1      33.011  17.260 -24.416  0.00  0.00     0.000 A 
ATOM     18  C   UNL d   1      32.199  17.108 -24.550  0.00  0.00     0.001 A 
ENDBRANCH   1  12
BRANCH   5  19
ATOM     19  S   UNL d   1      29.358  15.690 -23.745  0.00  0.00    -0.093 SA
ATOM     20  C   UNL d   1      28.542  15.574 -23.785  0.00  0.00     0.076 C 
ENDBRANCH   5  19
TORSDOF 2
ENDMDL
MODEL 4
REMARK VINA RESULT:       0.2      5.271      6.147
REMARK  2 active torsions:
REMARK  status: ('A' for Active; 'I' for Inactive)
REMARK    1  A    between atoms: C_7  and  C_1 
REMARK    2  A    between atoms: S_13  and  C_5 
ROOT
ATOM      1  C   UNL d   1      32.799  21.882 -21.727  0.00  0.00     0.025 A 
ATOM      2  C   UNL d   1      32.834  22.112 -22.517  0.00  0.00     0.106 A 
ATOM      3  C   UNL d   1      32.935  21.092 -21.525  0.00  0.00     0.092 A 
ATOM      4  N   UNL d   1      33.139  20.773 -22.902  0.00  0.00    -0.218 NA
ATOM      5  C   UNL d   1      33.105  20.538 -22.112  0.00  0.00     0.118 A 
ATOM      6  C   UNL d   1      33.005  21.558 -23.104  0.00  0.00     0.194 A 
ATOM      7  C   UNL d   1      32.698  22.903 -22.720  0.00  0.00     0.104 C 
ATOM      8  C   UNL d   1      32.899  20.864 -20.738  0.00  0.00     0.103 C 
ATOM      9  N   UNL d   1      32.565  23.680 -22.919  0.00  0.00    -0.191 NA
ATOM     10  N   UNL d   1      32.864  20.633 -19.958  0.00  0.00    -0.191 NA
ATOM     11  N   UNL d   1      33.039  21.795 -23.895  0.00  0.00    -0.126 N 
ENDROOT
BRANCH   1  12
ATOM     12  C   UNL d   1      32.630  22.431 -21.145  0.00  0.00     0.012 A 
ATOM     13  C   UNL d   1      31.845  22.623 -20.972  0.00  0.00     0.058 A 
ATOM     14 CL   UNL d   1      31.238  22.261 -21.388  0.00  0.00    -0.082 Cl
ATOM     15  C   UNL d   1      31.672  23.185 -20.376  0.00  0.00     0.011 A 
ATOM     16  C   UNL d   1      32.287  23.544 -19.965  0.00  0.00     0.001 A 
ATOM     17  C   UNL d   1      33.068  23.356 -20.133  0.00  0.00     0.000 A 
ATOM     18  C   UNL d   1      33.241  22.794 -20.728  0.00  0.00     0.001 A 
ENDBRANCH   1  12
BRANCH   5  19
ATOM     19  S   UNL d   1      33.240  19.747 -21.905  0.00  0.00    -0.093 SA
ATOM     20  C   UNL d   1      33.216  19.155 -22.479  0.00  0.00     0.076 C 
ENDBRANCH   5  19
TORSDOF 2
ENDMDL
