MODEL 1
REMARK VINA RESULT:       3.8      0.000      0.000
REMARK  7 active torsions:
REMARK  status: ('A' for Active; 'I' for Inactive)
REMARK    1  A    between atoms: N_3  and  C_1 
REMARK       I    between atoms: C_8  and  N_3 
REMARK    2  A    between atoms: C_12  and  N_3 
REMARK    3  A    between atoms: S_5  and  C_11 
REMARK    4  A    between atoms: C_16  and  S_5 
REMARK    5  A    between atoms: C_9  and  C_8 
REMARK    6  A    between atoms: C_11  and  C_9 
REMARK    7  A    between atoms: C_21  and  C_12 
ROOT
ATOM      1  N   UNL d   1     -41.833-122.595 -51.157  0.00  0.00    -0.253 N 
ATOM      2  C   UNL d   1     -42.304-122.760 -51.830  0.00  0.00     0.267 C 
ATOM      3  O   UNL d   1     -43.007-123.177 -51.738  0.00  0.00    -0.267 OA
ENDROOT
BRANCH   1   4
ATOM      4  C   UNL d   1     -42.079-122.851 -50.414  0.00  0.00     0.182 A 
ATOM      5  N   UNL d   1     -41.608-122.907 -49.732  0.00  0.00    -0.222 NA
ATOM      6  C   UNL d   1     -42.076-123.190 -49.105  0.00  0.00     0.089 A 
ATOM      7  C   UNL d   1     -41.902-123.346 -48.330  0.00  0.00     0.020 A 
ATOM      8  C   UNL d   1     -42.837-123.307 -49.404  0.00  0.00     0.050 A 
ATOM      9  C   UNL d   1     -42.481-123.622 -47.839  0.00  0.00     0.002 A 
ATOM     10  C   UNL d   1     -42.305-123.784 -47.043  0.00  0.00     0.000 C 
ATOM     11  C   UNL d   1     -43.243-123.742 -48.126  0.00  0.00     0.001 A 
ATOM     12  C   UNL d   1     -43.423-123.585 -48.908  0.00  0.00     0.007 A 
ATOM     13  C   UNL d   1     -44.179-123.701 -49.205  0.00  0.00     0.001 C 
ATOM     14  S   UNL d   1     -42.841-123.100 -50.204  0.00  0.00    -0.048 SA
ENDBRANCH   1   4
BRANCH   1  15
ATOM     15  C   UNL d   1     -41.127-122.178 -51.241  0.00  0.00     0.086 C 
BRANCH  15  16
ATOM     16  C   UNL d   1     -41.128-121.354 -51.207  0.00  0.00     0.037 A 
ATOM     17  C   UNL d   1     -41.135-120.970 -50.479  0.00  0.00     0.100 A 
ATOM     18  N   UNL d   1     -41.136-120.146 -50.446  0.00  0.00    -0.242 NA
ATOM     19  C   UNL d   1     -41.130-119.705 -51.141  0.00  0.00     0.099 A 
ATOM     20  C   UNL d   1     -41.124-120.088 -51.874  0.00  0.00     0.021 A 
ATOM     21  C   UNL d   1     -41.123-120.912 -51.907  0.00  0.00     0.005 A 
ENDBRANCH  15  16
ENDBRANCH   1  15
BRANCH   2  22
ATOM     22  C   UNL d   1     -42.057-122.505 -52.569  0.00  0.00     0.073 C 
BRANCH  22  23
ATOM     23  C   UNL d   1     -42.117-123.016 -53.219  0.00  0.00     0.104 C 
BRANCH  23  24
ATOM     24  S   UNL d   1     -42.077-122.713 -53.988  0.00  0.00     0.211 S 
ATOM     25  O   UNL d   1     -42.737-122.221 -53.831  0.00  0.00    -0.217 OA
ATOM     26  O   UNL d   1     -41.421-123.201 -54.144  0.00  0.00    -0.217 OA
BRANCH  24  27
ATOM     27  C   UNL d   1     -42.039-122.407 -54.759  0.00  0.00     0.088 A 
ATOM     28  C   UNL d   1     -42.705-122.052 -55.092  0.00  0.00     0.011 A 
ATOM     29  C   UNL d   1     -42.672-121.748 -55.856  0.00  0.00     0.001 A 
ATOM     30  C   UNL d   1     -41.972-121.798 -56.287  0.00  0.00     0.000 A 
ATOM     31  C   UNL d   1     -41.311-122.147 -55.961  0.00  0.00     0.001 A 
ATOM     32  C   UNL d   1     -41.338-122.456 -55.193  0.00  0.00     0.011 A 
ENDBRANCH  24  27
ENDBRANCH  23  24
ENDBRANCH  22  23
ENDBRANCH   2  22
TORSDOF 7
ENDMDL
