MODEL 1
REMARK VINA RESULT:      -5.2      0.000      0.000
REMARK  4 active torsions:
REMARK  status: ('A' for Active; 'I' for Inactive)
REMARK    1  A    between atoms: C_2  and  N_1 
REMARK    2  A    between atoms: N_7  and  C_3 
REMARK    3  A    between atoms: C_12  and  N_7 
REMARK    4  A    between atoms: C_14  and  C_12 
ROOT
ATOM      1  C   UNL d   1     -41.932-122.299 -54.348  0.00  0.00     0.200 A 
ATOM      2  C   UNL d   1     -41.566-122.805 -53.795  0.00  0.00     0.189 A 
ATOM      3  C   UNL d   1     -41.883-122.480 -55.141  0.00  0.00     0.210 A 
ATOM      4  N   UNL d   1     -41.161-123.477 -54.049  0.00  0.00    -0.203 NA
ATOM      5  N   UNL d   1     -41.488-123.136 -55.406  0.00  0.00    -0.202 NA
ATOM      6  C   UNL d   1     -41.122-123.642 -54.853  0.00  0.00     0.202 A 
ATOM      7  N   UNL d   1     -42.248-121.974 -55.694  0.00  0.00    -0.125 N 
ENDROOT
BRANCH   2   8
ATOM      8  N   UNL d   1     -41.603-122.643 -52.995  0.00  0.00    -0.224 NA
BRANCH   8   9
ATOM      9  C   UNL d   1     -41.154-123.070 -52.463  0.00  0.00     0.101 C 
BRANCH   9  10
ATOM     10  C   UNL d   1     -41.299-123.005 -51.650  0.00  0.00     0.019 A 
ATOM     11  C   UNL d   1     -41.124-122.319 -51.260  0.00  0.00     0.004 A 
ATOM     12  C   UNL d   1     -41.270-122.255 -50.443  0.00  0.00     0.030 A 
ATOM     13  C   UNL d   1     -41.594-122.895 -50.035  0.00  0.00     0.140 A 
ATOM     14  C   UNL d   1     -41.769-123.581 -50.425  0.00  0.00     0.030 A 
ATOM     15  F   UNL d   1     -41.736-122.826 -49.229  0.00  0.00    -0.204 F 
ATOM     16  C   UNL d   1     -41.626-123.648 -51.235  0.00  0.00     0.004 A 
ENDBRANCH   9  10
ENDBRANCH   8   9
ENDBRANCH   2   8
BRANCH   1  17
ATOM     17  N   UNL d   1     -42.334-121.632 -54.101  0.00  0.00    -0.107 N 
ATOM     18  O   UNL d   1     -43.137-121.676 -53.982  0.00  0.00    -0.531 OA
ATOM     19  O   UNL d   1     -41.930-120.930 -53.977  0.00  0.00    -0.531 OA
ENDBRANCH   1  17
TORSDOF 4
ENDMDL
MODEL 2
REMARK VINA RESULT:      -4.9      2.244      3.982
REMARK  4 active torsions:
REMARK  status: ('A' for Active; 'I' for Inactive)
REMARK    1  A    between atoms: C_2  and  N_1 
REMARK    2  A    between atoms: N_7  and  C_3 
REMARK    3  A    between atoms: C_12  and  N_7 
REMARK    4  A    between atoms: C_14  and  C_12 
ROOT
ATOM      1  C   UNL d   1     -41.542-122.228 -51.329  0.00  0.00     0.200 A 
ATOM      2  C   UNL d   1     -41.455-122.697 -52.014  0.00  0.00     0.189 A 
ATOM      3  C   UNL d   1     -41.416-122.567 -50.600  0.00  0.00     0.210 A 
ATOM      4  N   UNL d   1     -41.245-123.492 -51.950  0.00  0.00    -0.203 NA
ATOM      5  N   UNL d   1     -41.209-123.347 -50.521  0.00  0.00    -0.202 NA
ATOM      6  C   UNL d   1     -41.123-123.816 -51.205  0.00  0.00     0.202 A 
ATOM      7  N   UNL d   1     -41.503-122.099 -49.915  0.00  0.00    -0.125 N 
ENDROOT
BRANCH   2   8
ATOM      8  N   UNL d   1     -41.576-122.376 -52.755  0.00  0.00    -0.224 NA
BRANCH   8   9
ATOM      9  C   UNL d   1     -41.503-122.838 -53.425  0.00  0.00     0.101 C 
BRANCH   9  10
ATOM     10  C   UNL d   1     -41.727-122.539 -54.164  0.00  0.00     0.019 A 
ATOM     11  C   UNL d   1     -41.168-122.258 -54.675  0.00  0.00     0.004 A 
ATOM     12  C   UNL d   1     -41.395-121.957 -55.417  0.00  0.00     0.030 A 
ATOM     13  C   UNL d   1     -42.193-121.947 -55.627  0.00  0.00     0.140 A 
ATOM     14  C   UNL d   1     -42.752-122.228 -55.115  0.00  0.00     0.030 A 
ATOM     15  F   UNL d   1     -42.411-121.649 -56.361  0.00  0.00    -0.204 F 
ATOM     16  C   UNL d   1     -42.531-122.527 -54.379  0.00  0.00     0.004 A 
ENDBRANCH   9  10
ENDBRANCH   8   9
ENDBRANCH   2   8
BRANCH   1  17
ATOM     17  N   UNL d   1     -41.750-121.440 -51.387  0.00  0.00    -0.107 N 
ATOM     18  O   UNL d   1     -41.169-120.886 -51.514  0.00  0.00    -0.531 OA
ATOM     19  O   UNL d   1     -42.535-121.215 -51.318  0.00  0.00    -0.531 OA
ENDBRANCH   1  17
TORSDOF 4
ENDMDL
