MODEL 1
REMARK VINA RESULT:      24.8      0.000      0.000
REMARK  4 active torsions:
REMARK  status: ('A' for Active; 'I' for Inactive)
REMARK    1  A    between atoms: N_2  and  C_1 
REMARK    2  A    between atoms: C_9  and  C_3 
REMARK    3  A    between atoms: O_15  and  C_9 
REMARK    4  A    between atoms: C_18  and  O_15 
ROOT
ATOM      1  C   UNL d   1      13.903  12.220  -2.077  0.00  0.00     0.105 A 
ATOM      2  C   UNL d   1      14.111  12.909  -2.482  0.00  0.00     0.086 A 
ATOM      3  S   UNL d   1      13.429  11.781  -2.584  0.00  0.00    -0.069 SA
ATOM      4  C   UNL d   1      13.765  12.887  -3.226  0.00  0.00     0.013 A 
ATOM      5  C   UNL d   1      13.344  12.192  -3.291  0.00  0.00     0.031 A 
ATOM      6  C   UNL d   1      13.826  13.462  -3.814  0.00  0.00     0.001 C 
ATOM      7  C   UNL d   1      12.911  11.944  -3.948  0.00  0.00     0.007 C 
ENDROOT
BRANCH   1   8
ATOM      8  N   UNL d   1      14.152  12.050  -1.308  0.00  0.00    -0.236 N 
ATOM      9  C   UNL d   1      14.905  11.933  -1.000  0.00  0.00     0.268 A 
ATOM     10  C   UNL d   1      14.820  11.780  -0.189  0.00  0.00     0.066 A 
ATOM     11  O   UNL d   1      15.626  11.962  -1.423  0.00  0.00    -0.267 OA
ATOM     12  C   UNL d   1      14.020  11.806  -0.016  0.00  0.00     0.066 A 
ATOM     13  C   UNL d   1      13.610  11.971  -0.699  0.00  0.00     0.268 A 
ATOM     14  O   UNL d   1      12.803  12.045  -0.765  0.00  0.00    -0.267 OA
ENDBRANCH   1   8
BRANCH   2  15
ATOM     15  C   UNL d   1      14.590  13.523  -2.184  0.00  0.00     0.302 C 
ATOM     16  O   UNL d   1      15.362  13.352  -1.915  0.00  0.00    -0.259 OA
BRANCH  15  17
ATOM     17  O   UNL d   1      14.301  14.281  -2.157  0.00  0.00    -0.271 OA
BRANCH  17  18
ATOM     18  C   UNL d   1      14.792  14.900  -1.890  0.00  0.00     0.126 C 
ATOM     19  C   UNL d   1      14.462  15.627  -1.677  0.00  0.00     0.029 C 
ENDBRANCH  17  18
ENDBRANCH  15  17
ENDBRANCH   2  15
TORSDOF 4
ENDMDL
MODEL 2
REMARK VINA RESULT:      25.8      0.273      1.080
REMARK  4 active torsions:
REMARK  status: ('A' for Active; 'I' for Inactive)
REMARK    1  A    between atoms: N_2  and  C_1 
REMARK    2  A    between atoms: C_9  and  C_3 
REMARK    3  A    between atoms: O_15  and  C_9 
REMARK    4  A    between atoms: C_18  and  O_15 
ROOT
ATOM      1  C   UNL d   1      13.948  12.260  -2.108  0.00  0.00     0.105 A 
ATOM      2  C   UNL d   1      14.097  12.957  -2.523  0.00  0.00     0.086 A 
ATOM      3  S   UNL d   1      13.497  11.782  -2.601  0.00  0.00    -0.069 SA
ATOM      4  C   UNL d   1      13.741  12.903  -3.260  0.00  0.00     0.013 A 
ATOM      5  C   UNL d   1      13.369  12.179  -3.311  0.00  0.00     0.031 A 
ATOM      6  C   UNL d   1      13.749  13.474  -3.854  0.00  0.00     0.001 C 
ATOM      7  C   UNL d   1      12.942  11.894  -3.957  0.00  0.00     0.007 C 
ENDROOT
BRANCH   1   8
ATOM      8  N   UNL d   1      14.222  12.116  -1.343  0.00  0.00    -0.236 N 
ATOM      9  C   UNL d   1      13.837  12.159  -0.618  0.00  0.00     0.268 A 
ATOM     10  C   UNL d   1      14.389  11.953  -0.032  0.00  0.00     0.066 A 
ATOM     11  O   UNL d   1      13.038  12.369  -0.489  0.00  0.00    -0.267 OA
ATOM     12  C   UNL d   1      15.097  11.790  -0.408  0.00  0.00     0.066 A 
ATOM     13  C   UNL d   1      14.997  11.889  -1.209  0.00  0.00     0.268 A 
ATOM     14  O   UNL d   1      15.568  11.780  -1.778  0.00  0.00    -0.267 OA
ENDBRANCH   1   8
BRANCH   2  15
ATOM     15  C   UNL d   1      14.537  13.607  -2.240  0.00  0.00     0.302 C 
ATOM     16  O   UNL d   1      15.332  13.499  -2.007  0.00  0.00    -0.259 OA
BRANCH  15  17
ATOM     17  O   UNL d   1      14.188  14.338  -2.193  0.00  0.00    -0.271 OA
BRANCH  17  18
ATOM     18  C   UNL d   1      14.649  15.002  -1.988  0.00  0.00     0.126 C 
ATOM     19  C   UNL d   1      14.493  15.737  -2.335  0.00  0.00     0.029 C 
ENDBRANCH  17  18
ENDBRANCH  15  17
ENDBRANCH   2  15
TORSDOF 4
ENDMDL
