MODEL 1
REMARK VINA RESULT:      -8.0      0.000      0.000
REMARK  5 active torsions:
REMARK  status: ('A' for Active; 'I' for Inactive)
REMARK    1  A    between atoms: C_3  and  C_1 
REMARK       I    between atoms: N_2  and  C_4 
REMARK    2  A    between atoms: C_5  and  N_2 
REMARK       I    between atoms: N_6  and  C_3 
REMARK    3  A    between atoms: C_4  and  C_7 
REMARK    4  A    between atoms: C_7  and  N_6 
REMARK    5  A    between atoms: C_21  and  C_7 
ROOT
ATOM      1  C   UNL d   1     -47.801  12.804  22.754  0.00  0.00     0.263 C 
ATOM      2  N   UNL d   1     -48.338  13.122  22.226  0.00  0.00    -0.206 NA
ATOM      3  O   UNL d   1     -48.085  12.417  23.430  0.00  0.00    -0.270 OA
ENDROOT
BRANCH   2   4
ATOM      4  C   UNL d   1     -49.141  13.061  22.359  0.00  0.00     0.142 C 
BRANCH   4   5
ATOM      5  C   UNL d   1     -49.548  13.657  22.776  0.00  0.00     0.299 C 
ATOM      6  N   UNL d   1     -49.670  14.385  22.442  0.00  0.00    -0.181 NA
ATOM      7  O   UNL d   1     -49.823  13.487  23.535  0.00  0.00    -0.263 OA
BRANCH   6   8
ATOM      8  C   UNL d   1     -50.072  14.978  22.850  0.00  0.00     0.197 A 
ATOM      9  N   UNL d   1     -50.781  15.307  22.545  0.00  0.00    -0.219 NA
ATOM     10  C   UNL d   1     -51.035  15.879  23.086  0.00  0.00     0.108 A 
ATOM     11  C   UNL d   1     -50.532  15.917  23.694  0.00  0.00     0.059 A 
ATOM     12  S   UNL d   1     -49.899  15.351  23.575  0.00  0.00    -0.046 SA
ENDBRANCH   6   8
ENDBRANCH   4   5
BRANCH   4  13
ATOM     13  C   UNL d   1     -49.543  12.407  22.077  0.00  0.00     0.022 C 
ATOM     14  C   UNL d   1     -50.032  11.978  22.586  0.00  0.00     0.002 C 
ATOM     15  C   UNL d   1     -49.443  12.207  21.304  0.00  0.00     0.002 C 
ENDBRANCH   4  13
ENDBRANCH   2   4
BRANCH   1  16
ATOM     16  C   UNL d   1     -47.008  12.865  22.623  0.00  0.00     0.111 A 
ATOM     17  C   UNL d   1     -46.893  12.317  23.068  0.00  0.00     0.026 A 
ATOM     18  C   UNL d   1     -46.181  12.073  23.197  0.00  0.00     0.045 A 
ATOM     19  C   UNL d   1     -45.612  12.601  22.701  0.00  0.00    -0.022 A 
ATOM     20  C   UNL d   1     -45.408  12.369  22.872  0.00  0.00    -0.022 A 
ATOM     21  C   UNL d   1     -45.747  13.242  22.180  0.00  0.00    -0.007 A 
ATOM     22  C   UNL d   1     -46.583  13.398  22.136  0.00  0.00    -0.014 A 
ATOM     23  C   UNL d   1     -45.075  13.513  21.886  0.00  0.00    -0.001 A 
ATOM     24  C   UNL d   1     -45.530  12.949  22.402  0.00  0.00    -0.007 A 
ATOM     25  C   UNL d   1     -46.404  13.132  22.339  0.00  0.00    -0.014 A 
ENDBRANCH   1  16
TORSDOF 5
ENDMDL
MODEL 2
REMARK VINA RESULT:      -7.1      1.535      4.263
REMARK  5 active torsions:
REMARK  status: ('A' for Active; 'I' for Inactive)
REMARK    1  A    between atoms: C_3  and  C_1 
REMARK       I    between atoms: N_2  and  C_4 
REMARK    2  A    between atoms: C_5  and  N_2 
REMARK       I    between atoms: N_6  and  C_3 
REMARK    3  A    between atoms: C_4  and  C_7 
REMARK    4  A    between atoms: C_7  and  N_6 
REMARK    5  A    between atoms: C_21  and  C_7 
ROOT
ATOM      1  C   UNL d   1     -49.102  13.440  22.496  0.00  0.00     0.263 C 
ATOM      2  N   UNL d   1     -48.589  13.127  23.051  0.00  0.00    -0.206 NA
ATOM      3  O   UNL d   1     -49.123  13.110  21.737  0.00  0.00    -0.270 OA
ENDROOT
BRANCH   2   4
ATOM      4  C   UNL d   1     -48.105  12.498  22.862  0.00  0.00     0.142 C 
BRANCH   4   5
ATOM      5  C   UNL d   1     -47.348  12.628  22.538  0.00  0.00     0.299 C 
ATOM      6  N   UNL d   1     -46.714  12.782  23.019  0.00  0.00    -0.181 NA
ATOM      7  O   UNL d   1     -47.260  12.595  21.719  0.00  0.00    -0.263 OA
BRANCH   6   8
ATOM      8  C   UNL d   1     -45.963  12.912  22.704  0.00  0.00     0.197 A 
ATOM      9  N   UNL d   1     -45.331  12.384  22.864  0.00  0.00    -0.219 NA
ATOM     10  C   UNL d   1     -44.666  12.675  22.467  0.00  0.00     0.108 A 
ATOM     11  C   UNL d   1     -44.852  13.337  22.079  0.00  0.00     0.059 A 
ATOM     12  S   UNL d   1     -45.680  13.520  22.209  0.00  0.00    -0.046 SA
ENDBRANCH   6   8
ENDBRANCH   4   5
BRANCH   4  13
ATOM     13  C   UNL d   1     -48.371  11.735  22.995  0.00  0.00     0.022 C 
ATOM     14  C   UNL d   1     -48.767  11.558  23.698  0.00  0.00     0.002 C 
ATOM     15  C   UNL d   1     -48.232  11.183  22.426  0.00  0.00     0.002 C 
ENDBRANCH   4  13
ENDBRANCH   2   4
BRANCH   1  16
ATOM     16  C   UNL d   1     -49.580  14.062  22.683  0.00  0.00     0.111 A 
ATOM     17  C   UNL d   1     -50.109  13.769  22.301  0.00  0.00     0.026 A 
ATOM     18  C   UNL d   1     -50.784  14.122  22.249  0.00  0.00     0.045 A 
ATOM     19  C   UNL d   1     -50.728  14.901  22.738  0.00  0.00    -0.022 A 
ATOM     20  C   UNL d   1     -51.055  14.891  22.605  0.00  0.00    -0.022 A 
ATOM     21  C   UNL d   1     -50.109  15.243  23.186  0.00  0.00    -0.007 A 
ATOM     22  C   UNL d   1     -49.424  14.740  23.151  0.00  0.00    -0.014 A 
ATOM     23  C   UNL d   1     -50.334  15.921  23.505  0.00  0.00    -0.001 A 
ATOM     24  C   UNL d   1     -50.496  15.201  23.009  0.00  0.00    -0.007 A 
ATOM     25  C   UNL d   1     -49.763  14.687  22.987  0.00  0.00    -0.014 A 
ENDBRANCH   1  16
TORSDOF 5
ENDMDL
MODEL 3
REMARK VINA RESULT:      -6.6      7.725      9.590
REMARK  5 active torsions:
REMARK  status: ('A' for Active; 'I' for Inactive)
REMARK    1  A    between atoms: C_3  and  C_1 
REMARK       I    between atoms: N_2  and  C_4 
REMARK    2  A    between atoms: C_5  and  N_2 
REMARK       I    between atoms: N_6  and  C_3 
REMARK    3  A    between atoms: C_4  and  C_7 
REMARK    4  A    between atoms: C_7  and  N_6 
REMARK    5  A    between atoms: C_21  and  C_7 
ROOT
ATOM      1  C   UNL d   1     -40.306  14.518  19.214  0.00  0.00     0.263 C 
ATOM      2  N   UNL d   1     -40.059  14.961  19.856  0.00  0.00    -0.206 NA
ATOM      3  O   UNL d   1     -40.851  13.907  19.334  0.00  0.00    -0.270 OA
ENDROOT
BRANCH   2   4
ATOM      4  C   UNL d   1     -40.344  14.805  20.604  0.00  0.00     0.142 C 
BRANCH   4   5
ATOM      5  C   UNL d   1     -39.909  14.329  21.133  0.00  0.00     0.299 C 
ATOM      6  N   UNL d   1     -39.178  14.565  21.393  0.00  0.00    -0.181 NA
ATOM      7  O   UNL d   1     -40.239  13.617  21.385  0.00  0.00    -0.263 OA
BRANCH   6   8
ATOM      8  C   UNL d   1     -38.743  14.099  21.916  0.00  0.00     0.197 A 
ATOM      9  N   UNL d   1     -38.705  14.287  22.733  0.00  0.00    -0.219 NA
ATOM     10  C   UNL d   1     -38.229  13.714  23.093  0.00  0.00     0.108 A 
ATOM     11  C   UNL d   1     -37.979  13.195  22.553  0.00  0.00     0.059 A 
ATOM     12  S   UNL d   1     -38.290  13.412  21.784  0.00  0.00    -0.046 SA
ENDBRANCH   6   8
ENDBRANCH   4   5
BRANCH   4  13
ATOM     13  C   UNL d   1     -41.064  15.120  20.831  0.00  0.00     0.022 C 
ATOM     14  C   UNL d   1     -41.708  14.618  20.956  0.00  0.00     0.002 C 
ATOM     15  C   UNL d   1     -41.113  15.918  20.923  0.00  0.00     0.002 C 
ENDBRANCH   4  13
ENDBRANCH   2   4
BRANCH   1  16
ATOM     16  C   UNL d   1     -40.024  14.673  18.475  0.00  0.00     0.111 A 
ATOM     17  C   UNL d   1     -39.871  13.980  18.388  0.00  0.00     0.026 A 
ATOM     18  C   UNL d   1     -39.559  13.736  17.736  0.00  0.00     0.045 A 
ATOM     19  C   UNL d   1     -39.454  14.468  17.187  0.00  0.00    -0.022 A 
ATOM     20  C   UNL d   1     -39.331  14.191  17.006  0.00  0.00    -0.022 A 
ATOM     21  C   UNL d   1     -39.632  15.279  17.288  0.00  0.00    -0.007 A 
ATOM     22  C   UNL d   1     -39.973  15.399  18.059  0.00  0.00    -0.014 A 
ATOM     23  C   UNL d   1     -39.437  15.693  16.653  0.00  0.00    -0.001 A 
ATOM     24  C   UNL d   1     -39.493  14.923  17.097  0.00  0.00    -0.007 A 
ATOM     25  C   UNL d   1     -39.854  15.075  17.903  0.00  0.00    -0.014 A 
ENDBRANCH   1  16
TORSDOF 5
ENDMDL
MODEL 4
REMARK VINA RESULT:      -6.6      2.234      4.811
REMARK  5 active torsions:
REMARK  status: ('A' for Active; 'I' for Inactive)
REMARK    1  A    between atoms: C_3  and  C_1 
REMARK       I    between atoms: N_2  and  C_4 
REMARK    2  A    between atoms: C_5  and  N_2 
REMARK       I    between atoms: N_6  and  C_3 
REMARK    3  A    between atoms: C_4  and  C_7 
REMARK    4  A    between atoms: C_7  and  N_6 
REMARK    5  A    between atoms: C_21  and  C_7 
ROOT
ATOM      1  C   UNL d   1     -48.072  12.353  22.614  0.00  0.00     0.263 C 
ATOM      2  N   UNL d   1     -47.582  12.529  23.245  0.00  0.00    -0.206 NA
ATOM      3  O   UNL d   1     -47.734  12.196  21.875  0.00  0.00    -0.270 OA
ENDROOT
BRANCH   2   4
ATOM      4  C   UNL d   1     -46.772  12.550  23.150  0.00  0.00     0.142 C 
BRANCH   4   5
ATOM      5  C   UNL d   1     -46.307  11.881  23.330  0.00  0.00     0.299 C 
ATOM      6  N   UNL d   1     -45.516  11.869  23.150  0.00  0.00    -0.181 NA
ATOM      7  O   UNL d   1     -46.669  11.236  23.693  0.00  0.00    -0.263 OA
BRANCH   6   8
ATOM      8  C   UNL d   1     -45.052  11.210  23.325  0.00  0.00     0.197 A 
ATOM      9  N   UNL d   1     -44.222  11.222  23.199  0.00  0.00    -0.219 NA
ATOM     10  C   UNL d   1     -43.932  10.482  23.430  0.00  0.00     0.108 A 
ATOM     11  C   UNL d   1     -44.525  10.028  23.685  0.00  0.00     0.059 A 
ATOM     12  S   UNL d   1     -45.261  10.464  23.632  0.00  0.00    -0.046 SA
ENDBRANCH   6   8
ENDBRANCH   4   5
BRANCH   4  13
ATOM     13  C   UNL d   1     -46.420  13.235  22.877  0.00  0.00     0.022 C 
ATOM     14  C   UNL d   1     -46.398  13.904  23.361  0.00  0.00     0.002 C 
ATOM     15  C   UNL d   1     -46.106  13.228  22.136  0.00  0.00     0.002 C 
ENDBRANCH   4  13
ENDBRANCH   2   4
BRANCH   1  16
ATOM     16  C   UNL d   1     -48.873  12.333  22.708  0.00  0.00     0.111 A 
ATOM     17  C   UNL d   1     -48.955  12.649  22.072  0.00  0.00     0.026 A 
ATOM     18  C   UNL d   1     -49.656  12.801  21.809  0.00  0.00     0.045 A 
ATOM     19  C   UNL d   1     -50.259  12.509  22.440  0.00  0.00    -0.022 A 
ATOM     20  C   UNL d   1     -50.451  12.645  22.176  0.00  0.00    -0.022 A 
ATOM     21  C   UNL d   1     -50.163  12.139  23.184  0.00  0.00    -0.007 A 
ATOM     22  C   UNL d   1     -49.333  12.035  23.342  0.00  0.00    -0.014 A 
ATOM     23  C   UNL d   1     -50.855  11.995  23.520  0.00  0.00    -0.001 A 
ATOM     24  C   UNL d   1     -50.363  12.311  22.848  0.00  0.00    -0.007 A 
ATOM     25  C   UNL d   1     -49.496  12.190  23.037  0.00  0.00    -0.014 A 
ENDBRANCH   1  16
TORSDOF 5
ENDMDL
MODEL 5
REMARK VINA RESULT:      -6.2      7.676      9.281
REMARK  5 active torsions:
REMARK  status: ('A' for Active; 'I' for Inactive)
REMARK    1  A    between atoms: C_3  and  C_1 
REMARK       I    between atoms: N_2  and  C_4 
REMARK    2  A    between atoms: C_5  and  N_2 
REMARK       I    between atoms: N_6  and  C_3 
REMARK    3  A    between atoms: C_4  and  C_7 
REMARK    4  A    between atoms: C_7  and  N_6 
REMARK    5  A    between atoms: C_21  and  C_7 
ROOT
ATOM      1  C   UNL d   1     -39.595  14.842  21.480  0.00  0.00     0.263 C 
ATOM      2  N   UNL d   1     -40.107  14.425  20.998  0.00  0.00    -0.206 NA
ATOM      3  O   UNL d   1     -39.576  15.668  21.425  0.00  0.00    -0.270 OA
ENDROOT
BRANCH   2   4
ATOM      4  C   UNL d   1     -40.593  14.814  20.471  0.00  0.00     0.142 C 
BRANCH   4   5
ATOM      5  C   UNL d   1     -40.364  14.912  19.675  0.00  0.00     0.299 C 
ATOM      6  N   UNL d   1     -40.362  14.281  19.165  0.00  0.00    -0.181 NA
ATOM      7  O   UNL d   1     -40.139  15.663  19.421  0.00  0.00    -0.263 OA
BRANCH   6   8
ATOM      8  C   UNL d   1     -40.135  14.373  18.378  0.00  0.00     0.197 A 
ATOM      9  N   UNL d   1     -40.700  14.330  17.759  0.00  0.00    -0.219 NA
ATOM     10  C   UNL d   1     -40.291  14.444  17.049  0.00  0.00     0.108 A 
ATOM     11  C   UNL d   1     -39.523  14.552  17.196  0.00  0.00     0.059 A 
ATOM     12  S   UNL d   1     -39.386  14.513  18.041  0.00  0.00    -0.046 SA
ENDBRANCH   6   8
ENDBRANCH   4   5
BRANCH   4  13
ATOM     13  C   UNL d   1     -41.311  15.107  20.731  0.00  0.00     0.022 C 
ATOM     14  C   UNL d   1     -41.447  15.922  20.721  0.00  0.00     0.002 C 
ATOM     15  C   UNL d   1     -41.862  14.581  20.990  0.00  0.00     0.002 C 
ENDBRANCH   4  13
ENDBRANCH   2   4
BRANCH   1  16
ATOM     16  C   UNL d   1     -39.115  14.458  22.001  0.00  0.00     0.111 A 
ATOM     17  C   UNL d   1     -39.048  15.059  22.383  0.00  0.00     0.026 A 
ATOM     18  C   UNL d   1     -38.619  15.065  23.014  0.00  0.00     0.045 A 
ATOM     19  C   UNL d   1     -38.271  14.219  23.122  0.00  0.00    -0.022 A 
ATOM     20  C   UNL d   1     -38.149  14.411  23.392  0.00  0.00    -0.022 A 
ATOM     21  C   UNL d   1     -38.349  13.515  22.675  0.00  0.00    -0.007 A 
ATOM     22  C   UNL d   1     -38.854  13.661  22.005  0.00  0.00    -0.014 A 
ATOM     23  C   UNL d   1     -37.941  12.930  22.996  0.00  0.00    -0.001 A 
ATOM     24  C   UNL d   1     -38.219  13.775  22.988  0.00  0.00    -0.007 A 
ATOM     25  C   UNL d   1     -38.747  13.904  22.277  0.00  0.00    -0.014 A 
ENDBRANCH   1  16
TORSDOF 5
ENDMDL
MODEL 6
REMARK VINA RESULT:      -5.9      8.118     10.112
REMARK  5 active torsions:
REMARK  status: ('A' for Active; 'I' for Inactive)
REMARK    1  A    between atoms: C_3  and  C_1 
REMARK       I    between atoms: N_2  and  C_4 
REMARK    2  A    between atoms: C_5  and  N_2 
REMARK       I    between atoms: N_6  and  C_3 
REMARK    3  A    between atoms: C_4  and  C_7 
REMARK    4  A    between atoms: C_7  and  N_6 
REMARK    5  A    between atoms: C_21  and  C_7 
ROOT
ATOM      1  C   UNL d   1     -40.056  15.547  18.939  0.00  0.00     0.263 C 
ATOM      2  N   UNL d   1     -40.384  15.063  18.367  0.00  0.00    -0.206 NA
ATOM      3  O   UNL d   1     -39.334  15.922  18.781  0.00  0.00    -0.270 OA
ENDROOT
BRANCH   2   4
ATOM      4  C   UNL d   1     -40.009  14.950  17.651  0.00  0.00     0.142 C 
BRANCH   4   5
ATOM      5  C   UNL d   1     -39.380  14.407  17.584  0.00  0.00     0.299 C 
ATOM      6  N   UNL d   1     -39.526  13.615  17.486  0.00  0.00    -0.181 NA
ATOM      7  O   UNL d   1     -38.608  14.693  17.621  0.00  0.00    -0.263 OA
BRANCH   6   8
ATOM      8  C   UNL d   1     -38.908  13.074  17.419  0.00  0.00     0.197 A 
ATOM      9  N   UNL d   1     -38.528  12.942  16.683  0.00  0.00    -0.219 NA
ATOM     10  C   UNL d   1     -37.941  12.373  16.811  0.00  0.00     0.108 A 
ATOM     11  C   UNL d   1     -37.940  12.154  17.570  0.00  0.00     0.059 A 
ATOM     12  S   UNL d   1     -38.550  12.585  17.991  0.00  0.00    -0.046 SA
ENDBRANCH   6   8
ENDBRANCH   4   5
BRANCH   4  13
ATOM     13  C   UNL d   1     -40.257  15.375  16.998  0.00  0.00     0.022 C 
ATOM     14  C   UNL d   1     -41.058  15.378  16.794  0.00  0.00     0.002 C 
ATOM     15  C   UNL d   1     -39.702  15.778  16.578  0.00  0.00     0.002 C 
ENDBRANCH   4  13
ENDBRANCH   2   4
BRANCH   1  16
ATOM     16  C   UNL d   1     -40.427  15.660  19.646  0.00  0.00     0.111 A 
ATOM     17  C   UNL d   1     -39.792  15.706  19.971  0.00  0.00     0.026 A 
ATOM     18  C   UNL d   1     -39.757  15.823  20.725  0.00  0.00     0.045 A 
ATOM     19  C   UNL d   1     -40.621  15.878  21.038  0.00  0.00    -0.022 A 
ATOM     20  C   UNL d   1     -40.411  15.920  21.320  0.00  0.00    -0.022 A 
ATOM     21  C   UNL d   1     -41.364  15.824  20.657  0.00  0.00    -0.007 A 
ATOM     22  C   UNL d   1     -41.245  15.693  19.825  0.00  0.00    -0.014 A 
ATOM     23  C   UNL d   1     -41.950  15.907  21.169  0.00  0.00    -0.001 A 
ATOM     24  C   UNL d   1     -41.082  15.871  20.975  0.00  0.00    -0.007 A 
ATOM     25  C   UNL d   1     -40.983  15.734  20.096  0.00  0.00    -0.014 A 
ENDBRANCH   1  16
TORSDOF 5
ENDMDL
MODEL 7
REMARK VINA RESULT:      -5.6      9.268      9.965
REMARK  5 active torsions:
REMARK  status: ('A' for Active; 'I' for Inactive)
REMARK    1  A    between atoms: C_3  and  C_1 
REMARK       I    between atoms: N_2  and  C_4 
REMARK    2  A    between atoms: C_5  and  N_2 
REMARK       I    between atoms: N_6  and  C_3 
REMARK    3  A    between atoms: C_4  and  C_7 
REMARK    4  A    between atoms: C_7  and  N_6 
REMARK    5  A    between atoms: C_21  and  C_7 
ROOT
ATOM      1  C   UNL d   1     -38.569  14.181  19.709  0.00  0.00     0.263 C 
ATOM      2  N   UNL d   1     -39.052  13.741  19.217  0.00  0.00    -0.206 NA
ATOM      3  O   UNL d   1     -38.026  14.707  19.371  0.00  0.00    -0.270 OA
ENDROOT
BRANCH   2   4
ATOM      4  C   UNL d   1     -39.003  13.817  18.407  0.00  0.00     0.142 C 
BRANCH   4   5
ATOM      5  C   UNL d   1     -39.462  14.386  18.005  0.00  0.00     0.299 C 
ATOM      6  N   UNL d   1     -40.265  14.296  17.941  0.00  0.00    -0.181 NA
ATOM      7  O   UNL d   1     -39.080  15.039  17.677  0.00  0.00    -0.263 OA
BRANCH   6   8
ATOM      8  C   UNL d   1     -40.723  14.856  17.545  0.00  0.00     0.197 A 
ATOM      9  N   UNL d   1     -41.072  14.681  16.802  0.00  0.00    -0.219 NA
ATOM     10  C   UNL d   1     -41.489  15.355  16.564  0.00  0.00     0.108 A 
ATOM     11  C   UNL d   1     -41.416  15.922  17.109  0.00  0.00     0.059 A 
ATOM     12  S   UNL d   1     -40.930  15.636  17.755  0.00  0.00    -0.046 SA
ENDBRANCH   6   8
ENDBRANCH   4   5
BRANCH   4  13
ATOM     13  C   UNL d   1     -38.496  13.328  17.990  0.00  0.00     0.022 C 
ATOM     14  C   UNL d   1     -38.569  12.508  18.062  0.00  0.00     0.002 C 
ATOM     15  C   UNL d   1     -37.940  13.673  17.521  0.00  0.00     0.002 C 
ENDBRANCH   4  13
ENDBRANCH   2   4
BRANCH   1  16
ATOM     16  C   UNL d   1     -38.618  14.105  20.510  0.00  0.00     0.111 A 
ATOM     17  C   UNL d   1     -38.159  14.648  20.589  0.00  0.00     0.026 A 
ATOM     18  C   UNL d   1     -37.954  14.876  21.288  0.00  0.00     0.045 A 
ATOM     19  C   UNL d   1     -38.394  14.341  21.895  0.00  0.00    -0.022 A 
ATOM     20  C   UNL d   1     -38.200  14.567  22.085  0.00  0.00    -0.022 A 
ATOM     21  C   UNL d   1     -38.931  13.706  21.803  0.00  0.00    -0.007 A 
ATOM     22  C   UNL d   1     -39.063  13.567  20.974  0.00  0.00    -0.014 A 
ATOM     23  C   UNL d   1     -39.156  13.424  22.497  0.00  0.00    -0.001 A 
ATOM     24  C   UNL d   1     -38.685  13.994  22.002  0.00  0.00    -0.007 A 
ATOM     25  C   UNL d   1     -38.840  13.828  21.135  0.00  0.00    -0.014 A 
ENDBRANCH   1  16
TORSDOF 5
ENDMDL
