MODEL 1
REMARK VINA RESULT:      13.9      0.000      0.000
REMARK  3 active torsions:
REMARK  status: ('A' for Active; 'I' for Inactive)
REMARK    1  A    between atoms: C_3  and  C_1 
REMARK       I    between atoms: N_6  and  C_3 
REMARK    2  A    between atoms: C_12  and  N_5 
REMARK    3  A    between atoms: C_8  and  N_6 
ROOT
ATOM      1  C   UNL d   1      44.915 -15.166  44.614  0.00  0.00     0.348 C 
ATOM      2  N   UNL d   1      45.263 -14.421  44.487  0.00  0.00    -0.362 NA
ATOM      3  O   UNL d   1      44.121 -15.219  44.922  0.00  0.00    -0.249 OA
ENDROOT
BRANCH   1   4
ATOM      4  C   UNL d   1      45.351 -15.856  44.438  0.00  0.00     0.173 A 
ATOM      5  N   UNL d   1      45.343 -16.264  43.713  0.00  0.00    -0.159 NA
ATOM      6  N   UNL d   1      45.858 -16.914  43.790  0.00  0.00    -0.227 N 
ATOM      7  C   UNL d   1      46.175 -16.903  44.549  0.00  0.00     0.102 A 
ATOM      8  C   UNL d   1      45.864 -16.250  44.954  0.00  0.00     0.048 A 
BRANCH   6   9
ATOM      9  C   UNL d   1      46.021 -17.472  43.202  0.00  0.00     0.101 C 
ATOM     10  C   UNL d   1      46.284 -18.254  43.200  0.00  0.00     0.022 C 
ENDBRANCH   6   9
ENDBRANCH   1   4
BRANCH   2  11
ATOM     11  C   UNL d   1      45.510 -13.635  44.399  0.00  0.00     0.146 A 
ATOM     12  C   UNL d   1      45.242 -13.179  43.752  0.00  0.00     0.087 A 
ATOM     13 CL   UNL d   1      44.724 -13.522  43.195  0.00  0.00    -0.080 Cl
ATOM     14  C   UNL d   1      45.483 -12.411  43.666  0.00  0.00     0.014 A 
ATOM     15  C   UNL d   1      45.995 -12.080  44.222  0.00  0.00     0.001 A 
ATOM     16  C   UNL d   1      46.265 -12.523  44.864  0.00  0.00     0.003 A 
ATOM     17  C   UNL d   1      46.022 -13.305  44.954  0.00  0.00     0.033 A 
ENDBRANCH   2  11
TORSDOF 3
ENDMDL
MODEL 2
REMARK VINA RESULT:      14.2      2.087      4.786
REMARK  3 active torsions:
REMARK  status: ('A' for Active; 'I' for Inactive)
REMARK    1  A    between atoms: C_3  and  C_1 
REMARK       I    between atoms: N_6  and  C_3 
REMARK    2  A    between atoms: C_12  and  N_5 
REMARK    3  A    between atoms: C_8  and  N_6 
ROOT
ATOM      1  C   UNL d   1      46.127 -17.191  43.494  0.00  0.00     0.348 C 
ATOM      2  N   UNL d   1      46.234 -17.961  43.792  0.00  0.00    -0.362 NA
ATOM      3  O   UNL d   1      46.283 -17.026  42.672  0.00  0.00    -0.249 OA
ENDROOT
BRANCH   1   4
ATOM      4  C   UNL d   1      45.867 -16.587  44.008  0.00  0.00     0.173 A 
ATOM      5  N   UNL d   1      46.223 -15.841  44.102  0.00  0.00    -0.159 NA
ATOM      6  N   UNL d   1      45.778 -15.424  44.669  0.00  0.00    -0.227 N 
ATOM      7  C   UNL d   1      45.160 -15.907  44.917  0.00  0.00     0.102 A 
ATOM      8  C   UNL d   1      45.210 -16.628  44.511  0.00  0.00     0.048 A 
BRANCH   6   9
ATOM      9  C   UNL d   1      45.933 -14.656  44.934  0.00  0.00     0.101 C 
ATOM     10  C   UNL d   1      45.519 -13.943  44.925  0.00  0.00     0.022 C 
ENDBRANCH   6   9
ENDBRANCH   1   4
BRANCH   2  11
ATOM     11  C   UNL d   1      46.373 -18.756  43.981  0.00  0.00     0.146 A 
ATOM     12  C   UNL d   1      46.451 -19.324  43.374  0.00  0.00     0.087 A 
ATOM     13 CL   UNL d   1      46.389 -19.086  42.577  0.00  0.00    -0.080 Cl
ATOM     14  C   UNL d   1      46.587 -20.102  43.559  0.00  0.00     0.014 A 
ATOM     15  C   UNL d   1      46.647 -20.328  44.349  0.00  0.00     0.001 A 
ATOM     16  C   UNL d   1      46.570 -19.773  44.955  0.00  0.00     0.003 A 
ATOM     17  C   UNL d   1      46.432 -18.981  44.771  0.00  0.00     0.033 A 
ENDBRANCH   2  11
TORSDOF 3
ENDMDL
