MODEL 1
REMARK VINA RESULT:      -2.8      0.000      0.000
REMARK  3 active torsions:
REMARK  status: ('A' for Active; 'I' for Inactive)
REMARK    1  A    between atoms: C_5  and  S_1 
REMARK    2  A    between atoms: N_7  and  S_1 
REMARK       I    between atoms: N_2  and  C_3 
REMARK    3  A    between atoms: C_3  and  C_9 
ROOT
ATOM      1  C   UNL d   1      31.657  16.842 -23.994  0.00  0.00     0.104 A 
ATOM      2  C   UNL d   1      30.602  15.925 -23.702  0.00  0.00     0.059 A 
ATOM      3  C   UNL d   1      31.013  16.620 -23.530  0.00  0.00     0.018 A 
ATOM      4  C   UNL d   1      31.891  16.373 -24.628  0.00  0.00     0.012 A 
ATOM      5  C   UNL d   1      30.835  15.453 -24.338  0.00  0.00     0.005 A 
ATOM      6  C   UNL d   1      31.480  15.678 -24.801  0.00  0.00     0.001 A 
ATOM      7  C   UNL d   1      32.534  16.595 -25.091  0.00  0.00     0.001 C 
ENDROOT
BRANCH   1   8
ATOM      8  S   UNL d   1      32.064  17.530 -23.823  0.00  0.00     0.272 S 
ATOM      9  O   UNL d   1      31.411  18.034 -24.297  0.00  0.00    -0.200 OA
ATOM     10  O   UNL d   1      32.632  17.092 -23.411  0.00  0.00    -0.200 OA
BRANCH   8  11
ATOM     11  N   UNL d   1      32.433  18.259 -23.681  0.00  0.00    -0.225 N 
ATOM     12  C   UNL d   1      32.447  18.827 -24.270  0.00  0.00     0.118 A 
ATOM     13  C   UNL d   1      32.814  19.553 -24.130  0.00  0.00     0.142 A 
ATOM     14  O   UNL d   1      33.167  19.704 -23.395  0.00  0.00    -0.300 OA
ATOM     15  C   UNL d   1      33.148  19.123 -22.806  0.00  0.00     0.142 A 
ATOM     16  C   UNL d   1      32.779  18.393 -22.947  0.00  0.00     0.118 A 
ENDBRANCH   8  11
ENDBRANCH   1   8
BRANCH   2  17
ATOM     17  C   UNL d   1      29.957  15.696 -23.243  0.00  0.00     0.280 C 
ATOM     18  N   UNL d   1      29.201  15.712 -23.562  0.00  0.00    -0.195 N 
ATOM     19  N   UNL d   1      28.512  15.504 -23.183  0.00  0.00    -0.163 NA
ATOM     20  C   UNL d   1      29.015  15.944 -24.333  0.00  0.00     0.088 A 
ATOM     21  C   UNL d   1      27.881  15.602 -23.706  0.00  0.00     0.103 A 
ATOM     22  C   UNL d   1      27.087  15.455 -23.550  0.00  0.00     0.022 C 
ATOM     23  C   UNL d   1      28.195  15.875 -24.419  0.00  0.00     0.040 A 
ATOM     24  C   UNL d   1      29.547  16.200 -24.913  0.00  0.00     0.021 C 
ATOM     25  O   UNL d   1      30.072  15.453 -22.466  0.00  0.00    -0.265 OA
ENDBRANCH   2  17
TORSDOF 3
ENDMDL
MODEL 2
REMARK VINA RESULT:      -2.0      1.783      3.252
REMARK  3 active torsions:
REMARK  status: ('A' for Active; 'I' for Inactive)
REMARK    1  A    between atoms: C_5  and  S_1 
REMARK    2  A    between atoms: N_7  and  S_1 
REMARK       I    between atoms: N_2  and  C_3 
REMARK    3  A    between atoms: C_3  and  C_9 
ROOT
ATOM      1  C   UNL d   1      32.782  19.435 -22.954  0.00  0.00     0.104 A 
ATOM      2  C   UNL d   1      32.606  18.119 -23.479  0.00  0.00     0.059 A 
ATOM      3  C   UNL d   1      32.570  18.647 -22.844  0.00  0.00     0.018 A 
ATOM      4  C   UNL d   1      33.029  19.699 -23.694  0.00  0.00     0.012 A 
ATOM      5  C   UNL d   1      32.853  18.381 -24.221  0.00  0.00     0.005 A 
ATOM      6  C   UNL d   1      33.065  19.171 -24.328  0.00  0.00     0.001 A 
ATOM      7  C   UNL d   1      33.241  20.486 -23.803  0.00  0.00     0.001 C 
ENDROOT
BRANCH   1   8
ATOM      8  S   UNL d   1      32.746  19.958 -22.326  0.00  0.00     0.272 S 
ATOM      9  O   UNL d   1      33.241  19.347 -21.790  0.00  0.00    -0.200 OA
ATOM     10  O   UNL d   1      32.316  20.489 -22.792  0.00  0.00    -0.200 OA
BRANCH   8  11
ATOM     11  N   UNL d   1      32.743  20.446 -21.656  0.00  0.00    -0.225 N 
ATOM     12  C   UNL d   1      33.236  20.273 -21.027  0.00  0.00     0.118 A 
ATOM     13  C   UNL d   1      33.233  20.759 -20.359  0.00  0.00     0.142 A 
ATOM     14  O   UNL d   1      32.731  21.419 -20.329  0.00  0.00    -0.300 OA
ATOM     15  C   UNL d   1      32.237  21.585 -20.971  0.00  0.00     0.142 A 
ATOM     16  C   UNL d   1      32.240  21.097 -21.641  0.00  0.00     0.118 A 
ENDBRANCH   8  11
ENDBRANCH   1   8
BRANCH   2  17
ATOM     17  C   UNL d   1      32.396  17.329 -23.377  0.00  0.00     0.280 C 
ATOM     18  N   UNL d   1      31.749  17.022 -23.779  0.00  0.00    -0.195 N 
ATOM     19  N   UNL d   1      31.472  16.259 -23.739  0.00  0.00    -0.163 NA
ATOM     20  C   UNL d   1      31.266  17.448 -24.298  0.00  0.00     0.088 A 
ATOM     21  C   UNL d   1      30.813  16.189 -24.230  0.00  0.00     0.103 A 
ATOM     22  C   UNL d   1      30.363  15.511 -24.353  0.00  0.00     0.022 C 
ATOM     23  C   UNL d   1      30.687  16.927 -24.576  0.00  0.00     0.040 A 
ATOM     24  C   UNL d   1      31.346  18.245 -24.504  0.00  0.00     0.021 C 
ATOM     25  O   UNL d   1      32.834  16.849 -22.874  0.00  0.00    -0.265 OA
ENDBRANCH   2  17
TORSDOF 3
ENDMDL
MODEL 3
REMARK VINA RESULT:       0.2      2.763      4.585
REMARK  3 active torsions:
REMARK  status: ('A' for Active; 'I' for Inactive)
REMARK    1  A    between atoms: C_5  and  S_1 
REMARK    2  A    between atoms: N_7  and  S_1 
REMARK       I    between atoms: N_2  and  C_3 
REMARK    3  A    between atoms: C_3  and  C_9 
ROOT
ATOM      1  C   UNL d   1      32.791  20.494 -21.948  0.00  0.00     0.104 A 
ATOM      2  C   UNL d   1      32.917  19.448 -22.911  0.00  0.00     0.059 A 
ATOM      3  C   UNL d   1      32.726  20.230 -22.725  0.00  0.00     0.018 A 
ATOM      4  C   UNL d   1      33.047  19.983 -21.356  0.00  0.00     0.012 A 
ATOM      5  C   UNL d   1      33.174  18.933 -22.319  0.00  0.00     0.005 A 
ATOM      6  C   UNL d   1      33.239  19.201 -21.542  0.00  0.00     0.001 A 
ATOM      7  C   UNL d   1      33.113  20.247 -20.580  0.00  0.00     0.001 C 
ENDROOT
BRANCH   1   8
ATOM      8  S   UNL d   1      32.602  21.268 -21.764  0.00  0.00     0.272 S 
ATOM      9  O   UNL d   1      33.098  21.569 -22.517  0.00  0.00    -0.200 OA
ATOM     10  O   UNL d   1      32.170  21.007 -21.109  0.00  0.00    -0.200 OA
BRANCH   8  11
ATOM     11  N   UNL d   1      32.442  22.070 -21.626  0.00  0.00    -0.225 N 
ATOM     12  C   UNL d   1      31.914  22.283 -21.039  0.00  0.00     0.118 A 
ATOM     13  C   UNL d   1      31.754  23.081 -20.902  0.00  0.00     0.142 A 
ATOM     14  O   UNL d   1      32.129  23.663 -21.359  0.00  0.00    -0.300 OA
ATOM     15  C   UNL d   1      32.662  23.438 -21.950  0.00  0.00     0.142 A 
ATOM     16  C   UNL d   1      32.822  22.636 -22.088  0.00  0.00     0.118 A 
ENDBRANCH   8  11
ENDBRANCH   1   8
BRANCH   2  17
ATOM     17  C   UNL d   1      32.855  19.175 -23.686  0.00  0.00     0.280 C 
ATOM     18  N   UNL d   1      32.412  18.503 -23.849  0.00  0.00    -0.195 N 
ATOM     19  N   UNL d   1      32.297  18.166 -24.580  0.00  0.00    -0.163 NA
ATOM     20  C   UNL d   1      32.006  18.053 -23.287  0.00  0.00     0.088 A 
ATOM     21  C   UNL d   1      31.818  17.500 -24.493  0.00  0.00     0.103 A 
ATOM     22  C   UNL d   1      31.565  16.996 -25.092  0.00  0.00     0.022 C 
ATOM     23  C   UNL d   1      31.638  17.432 -23.690  0.00  0.00     0.040 A 
ATOM     24  C   UNL d   1      31.971  18.196 -22.472  0.00  0.00     0.021 C 
ATOM     25  O   UNL d   1      33.235  19.577 -24.294  0.00  0.00    -0.265 OA
ENDBRANCH   2  17
TORSDOF 3
ENDMDL
