MODEL 1
REMARK VINA RESULT:      43.3      0.000      0.000
REMARK  4 active torsions:
REMARK  status: ('A' for Active; 'I' for Inactive)
REMARK    1  A    between atoms: N_8  and  C_2 
REMARK    2  A    between atoms: C_9  and  C_3 
REMARK       I    between atoms: C_6  and  N_7 
REMARK    3  A    between atoms: C_10  and  C_6 
REMARK    4  A    between atoms: N_7  and  N_8 
ROOT
ATOM      1  C   UNL d   1     -51.000  24.126  33.383  0.00  0.00     0.297 C 
ATOM      2  N   UNL d   1     -50.690  24.909  33.319  0.00  0.00    -0.104 NA
ATOM      3  O   UNL d   1     -50.498  23.486  33.335  0.00  0.00    -0.264 OA
ENDROOT
BRANCH   2   4
ATOM      4  N   UNL d   1     -51.192  25.542  33.367  0.00  0.00    -0.119 NA
BRANCH   4   5
ATOM      5  C   UNL d   1     -50.928  26.230  33.670  0.00  0.00     0.214 A 
ATOM      6  N   UNL d   1     -50.693  26.942  33.307  0.00  0.00    -0.224 NA
ATOM      7  C   UNL d   1     -50.468  27.475  33.927  0.00  0.00     0.067 A 
ATOM      8  C   UNL d   1     -50.572  27.076  34.627  0.00  0.00     0.053 A 
ATOM      9  S   UNL d   1     -50.849  26.326  34.477  0.00  0.00    -0.045 SA
BRANCH   7  10
ATOM     10  C   UNL d   1     -50.191  28.260  33.846  0.00  0.00     0.036 C 
ATOM     11  C   UNL d   1     -49.929  29.043  33.757  0.00  0.00     0.006 C 
ATOM     12  C   UNL d   1     -50.860  28.433  33.388  0.00  0.00     0.006 C 
ATOM     13  C   UNL d   1     -49.525  28.062  34.310  0.00  0.00     0.006 C 
ENDBRANCH   7  10
ENDBRANCH   4   5
ENDBRANCH   2   4
BRANCH   1  14
ATOM     14  C   UNL d   1     -51.832  24.010  33.496  0.00  0.00     0.059 A 
ATOM     15  C   UNL d   1     -52.104  23.285  33.802  0.00  0.00     0.005 A 
ATOM     16  C   UNL d   1     -52.889  23.189  33.903  0.00  0.00     0.007 A 
ATOM     17  C   UNL d   1     -53.437  23.778  33.716  0.00  0.00     0.035 A 
ATOM     18  C   UNL d   1     -53.170  24.493  33.414  0.00  0.00     0.007 A 
ATOM     19 BR   UNL d   1     -54.236  23.653  33.830  0.00  0.00    -0.049 Br
ATOM     20  C   UNL d   1     -52.367  24.602  33.306  0.00  0.00     0.005 A 
ENDBRANCH   1  14
TORSDOF 4
ENDMDL
