MODEL 1
REMARK VINA RESULT:      -7.7      0.000      0.000
REMARK  0 active torsions:
REMARK  status: ('A' for Active; 'I' for Inactive)
ROOT
ATOM      1  N   UNL d   1     -48.600  13.128  23.159  0.00  0.00    -0.270 NA
ATOM      2  C   UNL d   1     -47.445  12.001  23.518  0.00  0.00    -0.001 A 
ATOM      3  C   UNL d   1     -48.244  11.812  23.593  0.00  0.00    -0.004 A 
ATOM      4  C   UNL d   1     -47.807  13.311  23.086  0.00  0.00     0.076 A 
ATOM      5  C   UNL d   1     -48.822  12.375  23.414  0.00  0.00     0.103 A 
ATOM      6  C   UNL d   1     -47.229  12.748  23.266  0.00  0.00     0.017 A 
ATOM      7  C   UNL d   1     -46.867  11.438  23.698  0.00  0.00    -0.000 C 
ATOM      8  C   UNL d   1     -47.584  14.064  22.831  0.00  0.00     0.019 A 
ATOM      9  C   UNL d   1     -49.043  11.622  23.669  0.00  0.00     0.029 C 
ATOM     10  C   UNL d   1     -49.400  12.939  23.234  0.00  0.00     0.029 C 
ATOM     11  C   UNL d   1     -46.433  12.935  23.191  0.00  0.00     0.002 A 
ATOM     12  C   UNL d   1     -46.789  14.251  22.757  0.00  0.00     0.002 A 
ATOM     13  C   UNL d   1     -46.207  13.690  22.935  0.00  0.00     0.000 A 
ENDROOT
TORSDOF 0
ENDMDL
MODEL 2
REMARK VINA RESULT:      -7.7      0.570      2.039
REMARK  0 active torsions:
REMARK  status: ('A' for Active; 'I' for Inactive)
ROOT
ATOM      1  N   UNL d   1     -48.586  13.251  23.086  0.00  0.00    -0.270 NA
ATOM      2  C   UNL d   1     -47.012  13.730  22.929  0.00  0.00    -0.001 A 
ATOM      3  C   UNL d   1     -47.623  14.254  22.750  0.00  0.00    -0.004 A 
ATOM      4  C   UNL d   1     -47.978  12.734  23.263  0.00  0.00     0.076 A 
ATOM      5  C   UNL d   1     -48.410  14.014  22.829  0.00  0.00     0.103 A 
ATOM      6  C   UNL d   1     -47.190  12.974  23.184  0.00  0.00     0.017 A 
ATOM      7  C   UNL d   1     -46.224  13.969  22.851  0.00  0.00    -0.000 C 
ATOM      8  C   UNL d   1     -48.153  11.970  23.520  0.00  0.00     0.019 A 
ATOM      9  C   UNL d   1     -48.234  14.778  22.571  0.00  0.00     0.029 C 
ATOM     10  C   UNL d   1     -49.198  13.775  22.908  0.00  0.00     0.029 C 
ATOM     11  C   UNL d   1     -46.580  12.453  23.362  0.00  0.00     0.002 A 
ATOM     12  C   UNL d   1     -47.544  11.450  23.698  0.00  0.00     0.002 A 
ATOM     13  C   UNL d   1     -46.755  11.685  23.621  0.00  0.00     0.000 A 
ENDROOT
TORSDOF 0
ENDMDL
MODEL 3
REMARK VINA RESULT:      -7.5      0.480      2.213
REMARK  0 active torsions:
REMARK  status: ('A' for Active; 'I' for Inactive)
ROOT
ATOM      1  N   UNL d   1     -47.941  13.559  22.917  0.00  0.00    -0.270 NA
ATOM      2  C   UNL d   1     -47.039  12.275  23.438  0.00  0.00    -0.001 A 
ATOM      3  C   UNL d   1     -46.667  12.971  23.196  0.00  0.00    -0.004 A 
ATOM      4  C   UNL d   1     -48.306  12.869  23.157  0.00  0.00     0.076 A 
ATOM      5  C   UNL d   1     -47.118  13.613  22.936  0.00  0.00     0.103 A 
ATOM      6  C   UNL d   1     -47.855  12.226  23.417  0.00  0.00     0.017 A 
ATOM      7  C   UNL d   1     -46.588  11.633  23.698  0.00  0.00    -0.000 C 
ATOM      8  C   UNL d   1     -49.129  12.814  23.138  0.00  0.00     0.019 A 
ATOM      9  C   UNL d   1     -46.295  13.666  22.955  0.00  0.00     0.029 C 
ATOM     10  C   UNL d   1     -47.569  14.256  22.676  0.00  0.00     0.029 C 
ATOM     11  C   UNL d   1     -48.224  11.533  23.658  0.00  0.00     0.002 A 
ATOM     12  C   UNL d   1     -49.498  12.122  23.379  0.00  0.00     0.002 A 
ATOM     13  C   UNL d   1     -49.051  11.477  23.640  0.00  0.00     0.000 A 
ENDROOT
TORSDOF 0
ENDMDL
MODEL 4
REMARK VINA RESULT:      -7.4      0.727      1.852
REMARK  0 active torsions:
REMARK  status: ('A' for Active; 'I' for Inactive)
ROOT
ATOM      1  N   UNL d   1     -48.184  12.618  23.350  0.00  0.00    -0.270 NA
ATOM      2  C   UNL d   1     -46.829  13.497  22.997  0.00  0.00    -0.001 A 
ATOM      3  C   UNL d   1     -46.759  12.722  23.272  0.00  0.00    -0.004 A 
ATOM      4  C   UNL d   1     -48.249  13.385  23.077  0.00  0.00     0.076 A 
ATOM      5  C   UNL d   1     -47.437  12.282  23.449  0.00  0.00     0.103 A 
ATOM      6  C   UNL d   1     -47.571  13.825  22.901  0.00  0.00     0.017 A 
ATOM      7  C   UNL d   1     -46.151  13.936  22.821  0.00  0.00    -0.000 C 
ATOM      8  C   UNL d   1     -48.997  13.722  22.978  0.00  0.00     0.019 A 
ATOM      9  C   UNL d   1     -46.689  11.948  23.547  0.00  0.00     0.029 C 
ATOM     10  C   UNL d   1     -48.115  11.843  23.625  0.00  0.00     0.029 C 
ATOM     11  C   UNL d   1     -47.639  14.596  22.627  0.00  0.00     0.002 A 
ATOM     12  C   UNL d   1     -49.064  14.492  22.704  0.00  0.00     0.002 A 
ATOM     13  C   UNL d   1     -48.389  14.936  22.527  0.00  0.00     0.000 A 
ENDROOT
TORSDOF 0
ENDMDL
MODEL 5
REMARK VINA RESULT:      -7.3      0.598      1.581
REMARK  0 active torsions:
REMARK  status: ('A' for Active; 'I' for Inactive)
ROOT
ATOM      1  N   UNL d   1     -47.435  12.097  23.450  0.00  0.00    -0.270 NA
ATOM      2  C   UNL d   1     -48.604  13.196  23.053  0.00  0.00    -0.001 A 
ATOM      3  C   UNL d   1     -48.817  12.438  23.301  0.00  0.00    -0.004 A 
ATOM      4  C   UNL d   1     -47.229  12.848  23.204  0.00  0.00     0.076 A 
ATOM      5  C   UNL d   1     -48.232  11.888  23.499  0.00  0.00     0.103 A 
ATOM      6  C   UNL d   1     -47.814  13.398  23.005  0.00  0.00     0.017 A 
ATOM      7  C   UNL d   1     -49.189  13.745  22.854  0.00  0.00    -0.000 C 
ATOM      8  C   UNL d   1     -46.432  13.057  23.154  0.00  0.00     0.019 A 
ATOM      9  C   UNL d   1     -49.029  11.680  23.549  0.00  0.00     0.029 C 
ATOM     10  C   UNL d   1     -47.647  11.338  23.698  0.00  0.00     0.029 C 
ATOM     11  C   UNL d   1     -47.605  14.153  22.758  0.00  0.00     0.002 A 
ATOM     12  C   UNL d   1     -46.223  13.811  22.907  0.00  0.00     0.002 A 
ATOM     13  C   UNL d   1     -46.805  14.365  22.708  0.00  0.00     0.000 A 
ENDROOT
TORSDOF 0
ENDMDL
MODEL 6
REMARK VINA RESULT:      -7.3      1.098      2.268
REMARK  0 active torsions:
REMARK  status: ('A' for Active; 'I' for Inactive)
ROOT
ATOM      1  N   UNL d   1     -47.478  13.206  22.339  0.00  0.00    -0.270 NA
ATOM      2  C   UNL d   1     -48.083  11.961  23.243  0.00  0.00    -0.001 A 
ATOM      3  C   UNL d   1     -47.339  12.274  23.416  0.00  0.00    -0.004 A 
ATOM      4  C   UNL d   1     -48.214  12.894  22.172  0.00  0.00     0.076 A 
ATOM      5  C   UNL d   1     -47.037  12.897  22.964  0.00  0.00     0.103 A 
ATOM      6  C   UNL d   1     -48.517  12.271  22.624  0.00  0.00     0.017 A 
ATOM      7  C   UNL d   1     -48.385  11.338  23.695  0.00  0.00    -0.000 C 
ATOM      8  C   UNL d   1     -48.657  13.203  21.547  0.00  0.00     0.019 A 
ATOM      9  C   UNL d   1     -46.596  12.586  23.588  0.00  0.00     0.029 C 
ATOM     10  C   UNL d   1     -46.735  13.520  22.511  0.00  0.00     0.029 C 
ATOM     11  C   UNL d   1     -49.257  11.958  22.454  0.00  0.00     0.002 A 
ATOM     12  C   UNL d   1     -49.396  12.890  21.377  0.00  0.00     0.002 A 
ATOM     13  C   UNL d   1     -49.703  12.268  21.826  0.00  0.00     0.000 A 
ENDROOT
TORSDOF 0
ENDMDL
MODEL 7
REMARK VINA RESULT:      -7.3      0.774      2.717
REMARK  0 active torsions:
REMARK  status: ('A' for Active; 'I' for Inactive)
ROOT
ATOM      1  N   UNL d   1     -47.236  12.564  23.179  0.00  0.00    -0.270 NA
ATOM      2  C   UNL d   1     -48.023  13.968  22.803  0.00  0.00    -0.001 A 
ATOM      3  C   UNL d   1     -47.204  13.967  22.903  0.00  0.00    -0.004 A 
ATOM      4  C   UNL d   1     -48.047  12.569  23.079  0.00  0.00     0.076 A 
ATOM      5  C   UNL d   1     -46.811  13.265  23.091  0.00  0.00     0.103 A 
ATOM      6  C   UNL d   1     -48.441  13.271  22.891  0.00  0.00     0.017 A 
ATOM      7  C   UNL d   1     -48.417  14.670  22.615  0.00  0.00    -0.000 C 
ATOM      8  C   UNL d   1     -48.473  11.867  23.167  0.00  0.00     0.019 A 
ATOM      9  C   UNL d   1     -46.386  13.967  23.003  0.00  0.00     0.029 C 
ATOM     10  C   UNL d   1     -46.417  12.563  23.280  0.00  0.00     0.029 C 
ATOM     11  C   UNL d   1     -49.256  13.273  22.790  0.00  0.00     0.002 A 
ATOM     12  C   UNL d   1     -49.288  11.870  23.066  0.00  0.00     0.002 A 
ATOM     13  C   UNL d   1     -49.686  12.570  22.878  0.00  0.00     0.000 A 
ENDROOT
TORSDOF 0
ENDMDL
MODEL 8
REMARK VINA RESULT:      -7.2      1.447      2.215
REMARK  0 active torsions:
REMARK  status: ('A' for Active; 'I' for Inactive)
ROOT
ATOM      1  N   UNL d   1     -48.243  12.850  21.822  0.00  0.00    -0.270 NA
ATOM      2  C   UNL d   1     -48.524  14.407  22.300  0.00  0.00    -0.001 A 
ATOM      3  C   UNL d   1     -49.109  13.987  21.899  0.00  0.00    -0.004 A 
ATOM      4  C   UNL d   1     -47.667  13.270  22.220  0.00  0.00     0.076 A 
ATOM      5  C   UNL d   1     -48.969  13.208  21.659  0.00  0.00     0.103 A 
ATOM      6  C   UNL d   1     -47.807  14.049  22.459  0.00  0.00     0.017 A 
ATOM      7  C   UNL d   1     -48.665  15.186  22.540  0.00  0.00    -0.000 C 
ATOM      8  C   UNL d   1     -46.940  12.913  22.383  0.00  0.00     0.019 A 
ATOM      9  C   UNL d   1     -49.694  13.566  21.497  0.00  0.00     0.029 C 
ATOM     10  C   UNL d   1     -48.828  12.429  21.420  0.00  0.00     0.029 C 
ATOM     11  C   UNL d   1     -47.226  14.470  22.859  0.00  0.00     0.002 A 
ATOM     12  C   UNL d   1     -46.360  13.333  22.783  0.00  0.00     0.002 A 
ATOM     13  C   UNL d   1     -46.496  14.112  23.024  0.00  0.00     0.000 A 
ENDROOT
TORSDOF 0
ENDMDL
MODEL 9
REMARK VINA RESULT:      -6.7      0.716      1.831
REMARK  0 active torsions:
REMARK  status: ('A' for Active; 'I' for Inactive)
ROOT
ATOM      1  N   UNL d   1     -47.637  12.588  23.354  0.00  0.00    -0.270 NA
ATOM      2  C   UNL d   1     -49.254  12.854  23.134  0.00  0.00    -0.001 A 
ATOM      3  C   UNL d   1     -48.990  12.125  23.416  0.00  0.00    -0.004 A 
ATOM      4  C   UNL d   1     -47.903  13.308  23.076  0.00  0.00     0.076 A 
ATOM      5  C   UNL d   1     -48.181  11.992  23.526  0.00  0.00     0.103 A 
ATOM      6  C   UNL d   1     -48.712  13.441  22.965  0.00  0.00     0.017 A 
ATOM      7  C   UNL d   1     -50.063  12.987  23.024  0.00  0.00    -0.000 C 
ATOM      8  C   UNL d   1     -47.359  13.905  22.903  0.00  0.00     0.019 A 
ATOM      9  C   UNL d   1     -48.726  11.396  23.698  0.00  0.00     0.029 C 
ATOM     10  C   UNL d   1     -47.372  11.859  23.636  0.00  0.00     0.029 C 
ATOM     11  C   UNL d   1     -48.977  14.166  22.685  0.00  0.00     0.002 A 
ATOM     12  C   UNL d   1     -47.624  14.629  22.623  0.00  0.00     0.002 A 
ATOM     13  C   UNL d   1     -48.432  14.767  22.511  0.00  0.00     0.000 A 
ENDROOT
TORSDOF 0
ENDMDL
