MODEL 1
REMARK VINA RESULT:       4.0      0.000      0.000
REMARK  6 active torsions:
REMARK  status: ('A' for Active; 'I' for Inactive)
REMARK    1  A    between atoms: C_13  and  C_4 
REMARK    2  A    between atoms: C_20  and  C_7 
REMARK    3  A    between atoms: C_8  and  C_12 
REMARK       I    between atoms: N_9  and  C_8 
REMARK    4  A    between atoms: C_11  and  N_9 
REMARK       I    between atoms: C_12  and  N_19 
REMARK    5  A    between atoms: N_19  and  C_23 
REMARK    6  A    between atoms: C_23  and  C_20 
ROOT
ATOM      1  C   UNL d   1     -41.599-122.148 -52.082  0.00  0.00     0.041 C 
ENDROOT
BRANCH   1   2
ATOM      2  C   UNL d   1     -41.466-122.682 -52.697  0.00  0.00     0.093 A 
ATOM      3  N   UNL d   1     -41.602-122.548 -53.496  0.00  0.00    -0.205 N 
ATOM      4  C   UNL d   1     -41.395-123.228 -53.919  0.00  0.00     0.197 A 
ATOM      5  N   UNL d   1     -41.871-121.982 -54.046  0.00  0.00    -0.144 NA
ATOM      6  N   UNL d   1     -41.534-123.085 -54.721  0.00  0.00    -0.200 NA
ATOM      7  S   UNL d   1     -41.128-123.788 -53.375  0.00  0.00    -0.046 SA
ATOM      8  C   UNL d   1     -41.827-122.319 -54.801  0.00  0.00     0.184 A 
ATOM      9  C   UNL d   1     -41.173-123.450 -52.620  0.00  0.00     0.058 A 
BRANCH   8  10
ATOM     10  C   UNL d   1     -42.039-121.955 -55.509  0.00  0.00     0.038 A 
ATOM     11  C   UNL d   1     -42.810-122.011 -55.785  0.00  0.00     0.003 A 
ATOM     12  C   UNL d   1     -43.370-122.430 -55.355  0.00  0.00     0.000 C 
ATOM     13  C   UNL d   1     -43.022-121.645 -56.497  0.00  0.00     0.000 A 
ATOM     14  C   UNL d   1     -42.450-121.223 -56.925  0.00  0.00     0.000 A 
ATOM     15  C   UNL d   1     -41.679-121.167 -56.649  0.00  0.00     0.000 A 
ATOM     16  C   UNL d   1     -41.468-121.534 -55.937  0.00  0.00     0.003 A 
ENDBRANCH   8  10
ENDBRANCH   1   2
BRANCH   1  17
ATOM     17  C   UNL d   1     -41.205-122.239 -51.364  0.00  0.00     0.104 C 
BRANCH  17  18
ATOM     18  N   UNL d   1     -41.561-122.640 -50.750  0.00  0.00    -0.202 NA
ATOM     19  C   UNL d   1     -41.773-122.240 -50.063  0.00  0.00     0.337 C 
ATOM     20  O   UNL d   1     -41.623-121.432 -49.996  0.00  0.00    -0.260 OA
BRANCH  19  21
ATOM     21  C   UNL d   1     -42.130-122.642 -49.447  0.00  0.00     0.337 C 
ATOM     22  N   UNL d   1     -41.962-122.448 -48.658  0.00  0.00    -0.204 NA
ATOM     23  O   UNL d   1     -42.674-123.260 -49.608  0.00  0.00    -0.260 OA
BRANCH  22  24
ATOM     24  C   UNL d   1     -42.322-122.854 -48.037  0.00  0.00     0.085 A 
ATOM     25  C   UNL d   1     -41.899-122.987 -47.331  0.00  0.00     0.018 A 
ATOM     26  C   UNL d   1     -42.234-123.384 -46.705  0.00  0.00     0.002 A 
ATOM     27  C   UNL d   1     -41.128-122.713 -47.258  0.00  0.00     0.002 C 
ATOM     28  C   UNL d   1     -43.021-123.669 -46.768  0.00  0.00     0.000 A 
ATOM     29  C   UNL d   1     -43.449-123.535 -47.482  0.00  0.00     0.002 A 
ATOM     30  C   UNL d   1     -43.088-123.125 -48.112  0.00  0.00     0.019 A 
ATOM     31  C   UNL d   1     -44.217-123.808 -47.553  0.00  0.00     0.000 C 
ENDBRANCH  22  24
ENDBRANCH  19  21
ENDBRANCH  17  18
ENDBRANCH   1  17
TORSDOF 6
ENDMDL
