MODEL 1
REMARK VINA RESULT:      76.3      0.000      0.000
REMARK  7 active torsions:
REMARK  status: ('A' for Active; 'I' for Inactive)
REMARK    1  A    between atoms: C_11  and  N_3 
REMARK    2  A    between atoms: C_10  and  C_4 
REMARK    3  A    between atoms: C_16  and  C_11 
REMARK    4  A    between atoms: N_13  and  C_17 
REMARK    5  A    between atoms: C_26  and  N_14 
REMARK    6  A    between atoms: C_17  and  C_16 
REMARK    7  A    between atoms: C_28  and  C_26 
ROOT
ATOM      1  C   UNL d   1      59.105  49.707  51.015  0.00  0.00     0.137 A 
ATOM      2  N   UNL d   1      58.827  49.706  51.802  0.00  0.00    -0.259 N 
ATOM      3  N   UNL d   1      59.929  49.707  51.050  0.00  0.00    -0.287 N 
ATOM      4  C   UNL d   1      58.573  49.707  50.392  0.00  0.00     0.054 A 
ATOM      5  C   UNL d   1      58.012  49.706  51.948  0.00  0.00     0.266 A 
ATOM      6  C   UNL d   1      59.477  49.706  52.310  0.00  0.00     0.084 A 
ATOM      7  C   UNL d   1      60.168  49.707  51.839  0.00  0.00     0.082 A 
ATOM      8  C   UNL d   1      57.761  49.707  50.535  0.00  0.00     0.009 A 
ATOM      9  C   UNL d   1      57.473  49.706  51.314  0.00  0.00     0.061 A 
ATOM     10  O   UNL d   1      57.728  49.705  52.727  0.00  0.00    -0.267 OA
ATOM     11  C   UNL d   1      59.545  49.706  53.129  0.00  0.00     0.019 A 
ATOM     12  C   UNL d   1      57.225  49.707  49.905  0.00  0.00     0.000 C 
ATOM     13  C   UNL d   1      60.898  49.707  52.206  0.00  0.00     0.019 A 
ATOM     14  C   UNL d   1      60.284  49.706  53.480  0.00  0.00     0.002 A 
ATOM     15  C   UNL d   1      60.968  49.706  53.013  0.00  0.00     0.002 A 
ENDROOT
BRANCH   3  16
ATOM     16  C   UNL d   1      60.614  49.708  50.594  0.00  0.00     0.125 C 
BRANCH  16  17
ATOM     17  C   UNL d   1      60.841  49.023  50.195  0.00  0.00     0.231 C 
ATOM     18  O   UNL d   1      60.690  48.941  49.390  0.00  0.00    -0.283 OA
BRANCH  17  19
ATOM     19  C   UNL d   1      61.222  48.417  50.602  0.00  0.00     0.124 C 
BRANCH  19  20
ATOM     20  N   UNL d   1      61.361  47.696  50.234  0.00  0.00    -0.297 N 
ATOM     21  C   UNL d   1      61.117  47.034  50.673  0.00  0.00     0.100 A 
ATOM     22  C   UNL d   1      61.224  46.272  50.367  0.00  0.00     0.100 A 
ATOM     23  N   UNL d   1      61.573  46.166  49.625  0.00  0.00    -0.297 N 
ATOM     24  C   UNL d   1      61.816  46.824  49.188  0.00  0.00     0.100 A 
ATOM     25  C   UNL d   1      61.709  47.586  49.494  0.00  0.00     0.100 A 
BRANCH  23  26
ATOM     26  C   UNL d   1      61.679  45.400  49.321  0.00  0.00     0.126 C 
BRANCH  26  27
ATOM     27  C   UNL d   1      62.175  44.863  49.705  0.00  0.00     0.253 C 
ATOM     28  O   UNL d   1      61.854  44.239  50.119  0.00  0.00    -0.281 OA
ENDBRANCH  26  27
ENDBRANCH  23  26
ENDBRANCH  19  20
ENDBRANCH  17  19
ENDBRANCH  16  17
ENDBRANCH   3  16
BRANCH   4  29
ATOM     29  C   UNL d   1      58.846  49.708  49.619  0.00  0.00     0.125 C 
ATOM     30  N   UNL d   1      58.372  49.453  48.998  0.00  0.00    -0.146 N 
ENDBRANCH   4  29
TORSDOF 7
ENDMDL
