MODEL 1
REMARK VINA RESULT:      74.6      0.000      0.000
REMARK  7 active torsions:
REMARK  status: ('A' for Active; 'I' for Inactive)
REMARK    1  A    between atoms: N_4  and  S_1 
REMARK    2  A    between atoms: C_8  and  S_1 
REMARK    3  A    between atoms: N_2  and  C_3 
REMARK    4  A    between atoms: C_3  and  C_6 
REMARK    5  A    between atoms: C_7  and  C_3 
REMARK    6  A    between atoms: C_6  and  N_4 
REMARK    7  A    between atoms: C_17  and  N_5 
ROOT
ATOM      1  C   UNL d   1      45.099 -12.857  39.543  0.00  0.00     0.107 C 
ENDROOT
BRANCH   1   2
ATOM      2  N   UNL d   1      45.196 -12.826  40.361  0.00  0.00    -0.298 N 
ATOM      3  C   UNL d   1      45.796 -13.262  40.723  0.00  0.00     0.100 A 
ATOM      4  C   UNL d   1      45.893 -13.232  41.542  0.00  0.00     0.100 A 
ATOM      5  N   UNL d   1      45.389 -12.765  42.000  0.00  0.00    -0.301 N 
ATOM      6  C   UNL d   1      44.792 -12.332  41.636  0.00  0.00     0.100 A 
ATOM      7  C   UNL d   1      44.692 -12.360  40.819  0.00  0.00     0.100 A 
BRANCH   5   8
ATOM      8  C   UNL d   1      45.486 -12.736  42.812  0.00  0.00     0.064 A 
ATOM      9  C   UNL d   1      45.175 -12.112  43.243  0.00  0.00     0.018 A 
ATOM     10  C   UNL d   1      45.271 -12.080  44.060  0.00  0.00     0.002 A 
ATOM     11  C   UNL d   1      45.684 -12.681  44.447  0.00  0.00     0.000 A 
ATOM     12  C   UNL d   1      45.999 -13.310  44.015  0.00  0.00     0.002 A 
ATOM     13  C   UNL d   1      45.899 -13.336  43.199  0.00  0.00     0.018 A 
ENDBRANCH   5   8
ENDBRANCH   1   2
BRANCH   1  14
ATOM     14  C   UNL d   1      45.682 -13.178  39.053  0.00  0.00     0.132 C 
BRANCH  14  15
ATOM     15  N   UNL d   1      45.468 -13.763  38.492  0.00  0.00    -0.155 NA
BRANCH  15  16
ATOM     16  S   UNL d   1      46.032 -14.057  37.973  0.00  0.00     0.285 S 
ATOM     17  O   UNL d   1      46.594 -14.361  37.446  0.00  0.00    -0.198 OA
ATOM     18  O   UNL d   1      46.600 -13.545  38.293  0.00  0.00    -0.198 OA
BRANCH  16  19
ATOM     19  C   UNL d   1      45.460 -14.569  37.655  0.00  0.00     0.105 A 
ATOM     20  C   UNL d   1      45.047 -14.356  36.973  0.00  0.00     0.015 A 
ATOM     21  C   UNL d   1      44.477 -14.859  36.651  0.00  0.00     0.030 A 
ATOM     22  C   UNL d   1      44.323 -15.588  37.027  0.00  0.00     0.140 A 
ATOM     23  C   UNL d   1      44.736 -15.801  37.709  0.00  0.00     0.030 A 
ATOM     24  F   UNL d   1      43.746 -16.103  36.705  0.00  0.00    -0.204 F 
ATOM     25  C   UNL d   1      45.304 -15.292  38.023  0.00  0.00     0.015 A 
ENDBRANCH  16  19
ENDBRANCH  15  16
ENDBRANCH  14  15
ENDBRANCH   1  14
BRANCH   1  26
ATOM     26  C   UNL d   1      44.396 -12.557  39.196  0.00  0.00     0.118 A 
ATOM     27  O   UNL d   1      44.377 -12.358  38.398  0.00  0.00    -0.304 OA
ATOM     28  C   UNL d   1      43.616 -12.081  38.221  0.00  0.00     0.123 A 
ATOM     29  C   UNL d   1      43.173 -12.110  38.905  0.00  0.00     0.029 A 
ATOM     30  C   UNL d   1      43.653 -12.404  39.510  0.00  0.00     0.028 A 
ENDBRANCH   1  26
TORSDOF 7
ENDMDL
