MODEL 1
REMARK VINA RESULT:      68.4      0.000      0.000
REMARK  2 active torsions:
REMARK  status: ('A' for Active; 'I' for Inactive)
REMARK    1  A    between atoms: N_7  and  C_1 
REMARK       I    between atoms: C_8  and  N_7 
REMARK    2  A    between atoms: C_10  and  C_8 
ROOT
ATOM      1  C   UNL d   1     -55.256-100.312 -44.382  0.00  0.00     0.159 A 
ATOM      2  N   UNL d   1     -54.999-100.688 -43.016  0.00  0.00    -0.257 N 
ATOM      3  C   UNL d   1     -54.971-101.485 -43.247  0.00  0.00     0.150 A 
ATOM      4  C   UNL d   1     -55.142-100.108 -43.593  0.00  0.00     0.285 A 
ATOM      5  N   UNL d   1     -55.085-101.705 -44.045  0.00  0.00    -0.226 NA
ATOM      6  C   UNL d   1     -55.228-101.118 -44.611  0.00  0.00     0.105 A 
ATOM      7  C   UNL d   1     -54.831-102.072 -42.693  0.00  0.00     0.035 A 
ATOM      8  C   UNL d   1     -54.888-100.480 -42.241  0.00  0.00     0.085 A 
ATOM      9  O   UNL d   1     -55.170 -99.311 -43.360  0.00  0.00    -0.265 OA
ATOM     10  C   UNL d   1     -54.745-101.067 -41.673  0.00  0.00     0.019 A 
ATOM     11  C   UNL d   1     -54.716-101.854 -41.888  0.00  0.00     0.004 A 
ATOM     12  C   UNL d   1     -55.340-101.318 -45.393  0.00  0.00     0.022 C 
ATOM     13  C   UNL d   1     -54.801-102.862 -42.903  0.00  0.00     0.003 C 
ENDROOT
BRANCH   1  14
ATOM     14  N   UNL d   1     -55.398 -99.725 -44.949  0.00  0.00    -0.202 NA
ATOM     15  C   UNL d   1     -56.172 -99.451 -45.066  0.00  0.00     0.279 C 
ATOM     16  O   UNL d   1     -55.648 -99.068 -45.566  0.00  0.00    -0.265 OA
BRANCH  15  17
ATOM     17  C   UNL d   1     -56.978 -99.264 -45.087  0.00  0.00     0.060 A 
ATOM     18  C   UNL d   1     -57.436 -99.383 -44.416  0.00  0.00     0.031 A 
ATOM     19  C   UNL d   1     -58.242 -99.195 -44.438  0.00  0.00     0.119 A 
ATOM     20  O   UNL d   1     -58.836 -99.251 -43.864  0.00  0.00    -0.300 OA
ATOM     21  C   UNL d   1     -58.582 -98.894 -45.122  0.00  0.00     0.119 A 
ATOM     22  C   UNL d   1     -59.549 -98.982 -44.198  0.00  0.00     0.304 A 
ATOM     23  O   UNL d   1     -59.379 -98.759 -44.990  0.00  0.00    -0.300 OA
ATOM     24  C   UNL d   1     -58.112 -98.776 -45.799  0.00  0.00     0.026 A 
ATOM     25  C   UNL d   1     -57.309 -98.962 -45.781  0.00  0.00     0.007 A 
ENDBRANCH  15  17
ENDBRANCH   1  14
TORSDOF 2
ENDMDL
