MODEL 1
REMARK VINA RESULT:      28.2      0.000      0.000
REMARK  2 active torsions:
REMARK  status: ('A' for Active; 'I' for Inactive)
REMARK    1  A    between atoms: S_4  and  C_1 
REMARK    2  A    between atoms: C_9  and  S_4 
ROOT
ATOM      1  C   UNL d   1     -57.262 -98.759 -44.252  0.00  0.00     0.107 A 
ATOM      2  C   UNL d   1     -57.578 -98.759 -45.022  0.00  0.00     0.201 A 
ATOM      3  C   UNL d   1     -57.717 -98.762 -43.597  0.00  0.00     0.201 A 
ATOM      4  C   UNL d   1     -58.887 -98.766 -44.414  0.00  0.00     0.043 A 
ATOM      5  C   UNL d   1     -58.403 -98.763 -45.104  0.00  0.00     0.020 A 
ATOM      6  C   UNL d   1     -58.536 -98.766 -43.665  0.00  0.00     0.020 A 
ATOM      7  O   UNL d   1     -57.350 -98.761 -42.871  0.00  0.00    -0.286 OA
ATOM      8  O   UNL d   1     -57.120 -98.756 -45.704  0.00  0.00    -0.286 OA
ATOM      9  C   UNL d   1     -59.548 -98.770 -43.955  0.00  0.00     0.009 C 
ATOM     10  C   UNL d   1     -59.465 -98.768 -44.995  0.00  0.00     0.009 C 
ENDROOT
BRANCH   1  11
ATOM     11  S   UNL d   1     -56.414 -98.755 -44.155  0.00  0.00    -0.081 SA
BRANCH  11  12
ATOM     12  C   UNL d   1     -55.997 -99.485 -44.227  0.00  0.00     0.030 A 
ATOM     13  C   UNL d   1     -56.392-100.211 -44.202  0.00  0.00     0.007 A 
ATOM     14  C   UNL d   1     -55.955-100.907 -44.275  0.00  0.00     0.007 A 
ATOM     15  C   UNL d   1     -55.140-100.885 -44.373  0.00  0.00     0.035 A 
ATOM     16  C   UNL d   1     -54.758-100.154 -44.397  0.00  0.00     0.007 A 
ATOM     17 BR   UNL d   1     -54.712-101.598 -44.447  0.00  0.00    -0.049 Br
ATOM     18  C   UNL d   1     -55.179 -99.450 -44.325  0.00  0.00     0.007 A 
ENDBRANCH  11  12
ENDBRANCH   1  11
TORSDOF 2
ENDMDL
