MODEL 1
REMARK VINA RESULT:      -3.0      0.000      0.000
REMARK  1 active torsions:
REMARK  status: ('A' for Active; 'I' for Inactive)
REMARK    1  A    between atoms: C_4  and  C_1 
ROOT
ATOM      1  C   UNL d   1      30.990  16.793 -23.919  0.00  0.00     0.163 A 
ATOM      2  N   UNL d   1      30.820  16.165 -23.412  0.00  0.00    -0.225 NA
ATOM      3  N   UNL d   1      30.275  17.048 -24.261  0.00  0.00    -0.225 NA
ATOM      4  C   UNL d   1      30.005  16.027 -23.433  0.00  0.00     0.101 A 
ATOM      5  C   UNL d   1      29.666  16.575 -23.960  0.00  0.00     0.101 A 
ATOM      6  C   UNL d   1      29.521  15.474 -23.044  0.00  0.00     0.021 A 
ATOM      7  C   UNL d   1      28.847  16.566 -24.093  0.00  0.00     0.021 A 
ATOM      8  C   UNL d   1      28.371  16.019 -23.707  0.00  0.00     0.002 A 
ATOM      9  C   UNL d   1      28.707  15.475 -23.185  0.00  0.00     0.002 A 
ENDROOT
BRANCH   1  10
ATOM     10  C   UNL d   1      31.735  17.113 -24.065  0.00  0.00     0.046 A 
ATOM     11  C   UNL d   1      32.207  16.789 -24.649  0.00  0.00     0.061 A 
ATOM     12 CL   UNL d   1      31.930  16.141 -25.089  0.00  0.00    -0.082 Cl
ATOM     13  C   UNL d   1      32.942  17.105 -24.793  0.00  0.00     0.011 A 
ATOM     14  C   UNL d   1      33.216  17.750 -24.355  0.00  0.00     0.001 A 
ATOM     15  C   UNL d   1      32.739  18.072 -23.769  0.00  0.00     0.000 A 
ATOM     16  C   UNL d   1      31.994  17.752 -23.624  0.00  0.00     0.004 A 
ENDBRANCH   1  10
TORSDOF 1
ENDMDL
MODEL 2
REMARK VINA RESULT:      -2.9      0.877      3.477
REMARK  1 active torsions:
REMARK  status: ('A' for Active; 'I' for Inactive)
REMARK    1  A    between atoms: C_4  and  C_1 
ROOT
ATOM      1  C   UNL d   1      30.736  16.494 -23.995  0.00  0.00     0.163 A 
ATOM      2  N   UNL d   1      31.163  17.128 -23.683  0.00  0.00    -0.225 NA
ATOM      3  N   UNL d   1      31.205  16.130 -24.578  0.00  0.00    -0.225 NA
ATOM      4  C   UNL d   1      31.895  17.162 -24.067  0.00  0.00     0.101 A 
ATOM      5  C   UNL d   1      31.921  16.543 -24.624  0.00  0.00     0.101 A 
ATOM      6  C   UNL d   1      32.544  17.674 -23.988  0.00  0.00     0.021 A 
ATOM      7  C   UNL d   1      32.597  16.441 -25.095  0.00  0.00     0.021 A 
ATOM      8  C   UNL d   1      33.237  16.949 -25.014  0.00  0.00     0.002 A 
ATOM      9  C   UNL d   1      33.211  17.563 -24.463  0.00  0.00     0.002 A 
ENDROOT
BRANCH   1  10
ATOM     10  C   UNL d   1      29.979  16.261 -23.770  0.00  0.00     0.046 A 
ATOM     11  C   UNL d   1      29.327  16.602 -24.128  0.00  0.00     0.061 A 
ATOM     12 CL   UNL d   1      29.437  17.181 -24.713  0.00  0.00    -0.082 Cl
ATOM     13  C   UNL d   1      28.580  16.372 -23.906  0.00  0.00     0.011 A 
ATOM     14  C   UNL d   1      28.473  15.796 -23.323  0.00  0.00     0.001 A 
ATOM     15  C   UNL d   1      29.130  15.455 -22.967  0.00  0.00     0.000 A 
ATOM     16  C   UNL d   1      29.887  15.688 -23.191  0.00  0.00     0.004 A 
ENDBRANCH   1  10
TORSDOF 1
ENDMDL
MODEL 3
REMARK VINA RESULT:      -2.8      0.963      3.316
REMARK  1 active torsions:
REMARK  status: ('A' for Active; 'I' for Inactive)
REMARK    1  A    between atoms: C_4  and  C_1 
ROOT
ATOM      1  C   UNL d   1      30.810  17.000 -24.203  0.00  0.00     0.163 A 
ATOM      2  N   UNL d   1      31.345  16.892 -23.584  0.00  0.00    -0.225 NA
ATOM      3  N   UNL d   1      31.093  17.617 -24.684  0.00  0.00    -0.225 NA
ATOM      4  C   UNL d   1      31.960  17.437 -23.676  0.00  0.00     0.101 A 
ATOM      5  C   UNL d   1      31.804  17.888 -24.359  0.00  0.00     0.101 A 
ATOM      6  C   UNL d   1      32.645  17.588 -23.230  0.00  0.00     0.021 A 
ATOM      7  C   UNL d   1      32.334  18.483 -24.589  0.00  0.00     0.021 A 
ATOM      8  C   UNL d   1      33.010  18.630 -24.146  0.00  0.00     0.002 A 
ATOM      9  C   UNL d   1      33.164  18.184 -23.470  0.00  0.00     0.002 A 
ENDROOT
BRANCH   1  10
ATOM     10  C   UNL d   1      30.116  16.573 -24.326  0.00  0.00     0.046 A 
ATOM     11  C   UNL d   1      30.135  15.887 -24.772  0.00  0.00     0.061 A 
ATOM     12 CL   UNL d   1      30.856  15.630 -25.097  0.00  0.00    -0.082 Cl
ATOM     13  C   UNL d   1      29.451  15.467 -24.893  0.00  0.00     0.011 A 
ATOM     14  C   UNL d   1      28.736  15.724 -24.569  0.00  0.00     0.001 A 
ATOM     15  C   UNL d   1      28.720  16.412 -24.121  0.00  0.00     0.000 A 
ATOM     16  C   UNL d   1      29.413  16.839 -23.999  0.00  0.00     0.004 A 
ENDBRANCH   1  10
TORSDOF 1
ENDMDL
MODEL 4
REMARK VINA RESULT:      -2.5      5.272      6.589
REMARK  1 active torsions:
REMARK  status: ('A' for Active; 'I' for Inactive)
REMARK    1  A    between atoms: C_4  and  C_1 
ROOT
ATOM      1  C   UNL d   1      32.798  21.840 -21.010  0.00  0.00     0.163 A 
ATOM      2  N   UNL d   1      32.710  21.033 -20.861  0.00  0.00    -0.225 NA
ATOM      3  N   UNL d   1      33.012  21.931 -21.809  0.00  0.00    -0.225 NA
ATOM      4  C   UNL d   1      32.868  20.621 -21.560  0.00  0.00     0.101 A 
ATOM      5  C   UNL d   1      33.056  21.179 -22.149  0.00  0.00     0.101 A 
ATOM      6  C   UNL d   1      32.868  19.810 -21.743  0.00  0.00     0.021 A 
ATOM      7  C   UNL d   1      33.241  20.920 -22.916  0.00  0.00     0.021 A 
ATOM      8  C   UNL d   1      33.240  20.119 -23.094  0.00  0.00     0.002 A 
ATOM      9  C   UNL d   1      33.054  19.566 -22.511  0.00  0.00     0.002 A 
ENDROOT
BRANCH   1  10
ATOM     10  C   UNL d   1      32.692  22.450 -20.466  0.00  0.00     0.046 A 
ATOM     11  C   UNL d   1      32.170  23.057 -20.635  0.00  0.00     0.061 A 
ATOM     12 CL   UNL d   1      31.753  23.051 -21.354  0.00  0.00    -0.082 Cl
ATOM     13  C   UNL d   1      32.066  23.658 -20.099  0.00  0.00     0.011 A 
ATOM     14  C   UNL d   1      32.482  23.662 -19.385  0.00  0.00     0.001 A 
ATOM     15  C   UNL d   1      33.005  23.051 -19.219  0.00  0.00     0.000 A 
ATOM     16  C   UNL d   1      33.110  22.441 -19.762  0.00  0.00     0.004 A 
ENDBRANCH   1  10
TORSDOF 1
ENDMDL
MODEL 5
REMARK VINA RESULT:      -1.9      3.503      4.890
REMARK  1 active torsions:
REMARK  status: ('A' for Active; 'I' for Inactive)
REMARK    1  A    between atoms: C_4  and  C_1 
ROOT
ATOM      1  C   UNL d   1      32.880  20.113 -22.179  0.00  0.00     0.163 A 
ATOM      2  N   UNL d   1      32.752  20.019 -22.988  0.00  0.00    -0.225 NA
ATOM      3  N   UNL d   1      33.086  19.371 -21.863  0.00  0.00    -0.225 NA
ATOM      4  C   UNL d   1      32.876  19.225 -23.180  0.00  0.00     0.101 A 
ATOM      5  C   UNL d   1      33.083  18.822 -22.481  0.00  0.00     0.101 A 
ATOM      6  C   UNL d   1      32.828  18.808 -23.898  0.00  0.00     0.021 A 
ATOM      7  C   UNL d   1      33.241  18.008 -22.507  0.00  0.00     0.021 A 
ATOM      8  C   UNL d   1      33.193  17.599 -23.218  0.00  0.00     0.002 A 
ATOM      9  C   UNL d   1      32.988  17.998 -23.911  0.00  0.00     0.002 A 
ENDROOT
BRANCH   1  10
ATOM     10  C   UNL d   1      32.817  20.817 -21.755  0.00  0.00     0.046 A 
ATOM     11  C   UNL d   1      32.995  21.527 -22.120  0.00  0.00     0.061 A 
ATOM     12 CL   UNL d   1      33.239  21.530 -22.914  0.00  0.00    -0.082 Cl
ATOM     13  C   UNL d   1      32.933  22.221 -21.702  0.00  0.00     0.011 A 
ATOM     14  C   UNL d   1      32.691  22.216 -20.912  0.00  0.00     0.001 A 
ATOM     15  C   UNL d   1      32.512  21.501 -20.549  0.00  0.00     0.000 A 
ATOM     16  C   UNL d   1      32.576  20.798 -20.972  0.00  0.00     0.004 A 
ENDBRANCH   1  10
TORSDOF 1
ENDMDL
