MODEL 1
REMARK VINA RESULT:       4.8      0.000      0.000
REMARK  4 active torsions:
REMARK  status: ('A' for Active; 'I' for Inactive)
REMARK    1  A    between atoms: S_6  and  C_1 
REMARK    2  A    between atoms: N_9  and  N_2 
REMARK    3  A    between atoms: C_12  and  S_6 
REMARK       I    between atoms: C_10  and  N_9 
REMARK    4  A    between atoms: C_11  and  C_10 
ROOT
ATOM      1  C   UNL d   1      31.917  18.458 -23.769  0.00  0.00     0.146 A 
ATOM      2  N   UNL d   1      31.961  17.363 -24.543  0.00  0.00    -0.188 N 
ATOM      3  C   UNL d   1      32.419  17.936 -24.164  0.00  0.00     0.199 A 
ATOM      4  C   UNL d   1      31.165  17.527 -24.382  0.00  0.00     0.184 A 
ATOM      5  C   UNL d   1      31.136  18.202 -23.905  0.00  0.00     0.131 A 
ATOM      6  N   UNL d   1      30.465  17.156 -24.605  0.00  0.00    -0.224 NA
ATOM      7  N   UNL d   1      30.413  18.499 -23.655  0.00  0.00    -0.240 NA
ATOM      8  C   UNL d   1      29.739  17.456 -24.353  0.00  0.00     0.101 A 
ATOM      9  C   UNL d   1      29.722  18.132 -23.875  0.00  0.00     0.099 A 
ATOM     10  N   UNL d   1      33.241  17.977 -24.181  0.00  0.00    -0.126 N 
ATOM     11  C   UNL d   1      29.039  17.084 -24.576  0.00  0.00     0.021 A 
ATOM     12  C   UNL d   1      28.994  18.435 -23.621  0.00  0.00     0.021 A 
ATOM     13  C   UNL d   1      28.294  18.060 -23.846  0.00  0.00     0.002 A 
ATOM     14  C   UNL d   1      28.311  17.384 -24.324  0.00  0.00     0.002 A 
ENDROOT
BRANCH   1  15
ATOM     15  S   UNL d   1      32.137  19.103 -23.326  0.00  0.00     0.214 S 
ATOM     16  O   UNL d   1      32.117  18.842 -22.538  0.00  0.00    -0.217 OA
ATOM     17  O   UNL d   1      32.158  19.364 -24.105  0.00  0.00    -0.217 OA
BRANCH  15  18
ATOM     18  C   UNL d   1      32.363  19.766 -22.885  0.00  0.00     0.088 A 
ATOM     19  C   UNL d   1      32.212  19.894 -22.084  0.00  0.00     0.011 A 
ATOM     20  C   UNL d   1      32.474  20.585 -21.722  0.00  0.00     0.001 A 
ATOM     21  C   UNL d   1      32.885  21.149 -22.159  0.00  0.00     0.000 A 
ATOM     22  C   UNL d   1      33.036  21.022 -22.957  0.00  0.00     0.001 A 
ATOM     23  C   UNL d   1      33.147  21.839 -21.797  0.00  0.00     0.000 C 
ATOM     24  C   UNL d   1      32.774  20.324 -23.329  0.00  0.00     0.011 A 
ENDBRANCH  15  18
ENDBRANCH   1  15
BRANCH   2  25
ATOM     25  N   UNL d   1      32.234  16.736 -25.000  0.00  0.00    -0.120 NA
ATOM     26  C   UNL d   1      32.570  16.074 -24.637  0.00  0.00     0.295 C 
ATOM     27  O   UNL d   1      32.840  15.452 -25.097  0.00  0.00    -0.264 OA
BRANCH  26  28
ATOM     28  C   UNL d   1      32.632  16.039 -23.814  0.00  0.00     0.059 A 
ATOM     29  C   UNL d   1      33.068  16.170 -23.124  0.00  0.00     0.005 A 
ATOM     30  C   UNL d   1      32.309  15.851 -23.079  0.00  0.00     0.005 A 
ENDBRANCH  26  28
ENDBRANCH   2  25
TORSDOF 4
ENDMDL
