MODEL 1
REMARK VINA RESULT:      -6.9      0.000      0.000
REMARK  6 active torsions:
REMARK  status: ('A' for Active; 'I' for Inactive)
REMARK    1  A    between atoms: N_2  and  S_1 
REMARK    2  A    between atoms: C_3  and  S_1 
REMARK    3  A    between atoms: C_4  and  C_9 
REMARK    4  A    between atoms: O_12  and  C_4 
REMARK    5  A    between atoms: C_19  and  O_12 
REMARK    6  A    between atoms: C_18  and  C_19 
ROOT
ATOM      1  C   UNL d   1     -48.352  14.100  22.798  0.00  0.00     0.104 A 
ATOM      2  C   UNL d   1     -47.592  13.759  22.760  0.00  0.00     0.018 A 
ATOM      3  C   UNL d   1     -46.940  14.242  22.602  0.00  0.00     0.064 A 
ATOM      4  C   UNL d   1     -48.458  14.909  22.680  0.00  0.00     0.013 A 
ATOM      5  C   UNL d   1     -47.045  15.057  22.483  0.00  0.00     0.005 A 
ATOM      6  C   UNL d   1     -47.806  15.392  22.522  0.00  0.00     0.001 A 
ENDROOT
BRANCH   3   7
ATOM      7  C   UNL d   1     -46.177  13.919  22.561  0.00  0.00     0.300 C 
ATOM      8  O   UNL d   1     -45.548  14.368  22.270  0.00  0.00    -0.259 OA
BRANCH   7   9
ATOM      9  O   UNL d   1     -46.053  13.143  22.814  0.00  0.00    -0.271 OA
BRANCH   9  10
ATOM     10  C   UNL d   1     -45.310  12.798  22.729  0.00  0.00     0.126 C 
BRANCH  10  11
ATOM     11  C   UNL d   1     -45.188  12.030  22.980  0.00  0.00     0.027 A 
ATOM     12  C   UNL d   1     -44.448  11.699  22.914  0.00  0.00     0.028 A 
ATOM     13  C   UNL d   1     -44.326  10.927  23.167  0.00  0.00     0.119 A 
ATOM     14  O   UNL d   1     -43.649  10.446  23.171  0.00  0.00    -0.300 OA
ATOM     15  C   UNL d   1     -44.943  10.490  23.484  0.00  0.00     0.119 A 
ATOM     16  C   UNL d   1     -43.863   9.717  23.494  0.00  0.00     0.304 A 
ATOM     17  O   UNL d   1     -44.660   9.744  23.686  0.00  0.00    -0.300 OA
ATOM     18  C   UNL d   1     -45.692  10.827  23.550  0.00  0.00     0.026 A 
ATOM     19  C   UNL d   1     -45.814  11.600  23.297  0.00  0.00     0.004 A 
ENDBRANCH  10  11
ENDBRANCH   9  10
ENDBRANCH   7   9
ENDBRANCH   3   7
BRANCH   1  20
ATOM     20  S   UNL d   1     -49.004  13.617  22.956  0.00  0.00     0.271 S 
ATOM     21  O   UNL d   1     -48.664  13.326  23.656  0.00  0.00    -0.200 OA
ATOM     22  O   UNL d   1     -49.347  13.906  22.255  0.00  0.00    -0.200 OA
BRANCH  20  23
ATOM     23  N   UNL d   1     -49.653  13.126  23.126  0.00  0.00    -0.229 N 
ATOM     24  C   UNL d   1     -49.593  12.305  22.999  0.00  0.00     0.092 A 
ATOM     25  C   UNL d   1     -50.243  11.827  23.172  0.00  0.00     0.020 A 
ATOM     26  C   UNL d   1     -50.950  12.145  23.467  0.00  0.00     0.003 A 
ATOM     27  C   UNL d   1     -50.998  12.958  23.589  0.00  0.00     0.020 A 
ATOM     28  C   UNL d   1     -50.350  13.449  23.419  0.00  0.00     0.092 A 
ENDBRANCH  20  23
ENDBRANCH   1  20
TORSDOF 6
ENDMDL
MODEL 2
REMARK VINA RESULT:      -6.3      3.584      4.908
REMARK  6 active torsions:
REMARK  status: ('A' for Active; 'I' for Inactive)
REMARK    1  A    between atoms: N_2  and  S_1 
REMARK    2  A    between atoms: C_3  and  S_1 
REMARK    3  A    between atoms: C_4  and  C_9 
REMARK    4  A    between atoms: O_12  and  C_4 
REMARK    5  A    between atoms: C_19  and  O_12 
REMARK    6  A    between atoms: C_18  and  C_19 
ROOT
ATOM      1  C   UNL d   1     -44.873  12.749  22.261  0.00  0.00     0.104 A 
ATOM      2  C   UNL d   1     -44.333  13.040  21.698  0.00  0.00     0.018 A 
ATOM      3  C   UNL d   1     -43.602  12.664  21.608  0.00  0.00     0.064 A 
ATOM      4  C   UNL d   1     -44.688  12.094  22.727  0.00  0.00     0.013 A 
ATOM      5  C   UNL d   1     -43.412  12.005  22.076  0.00  0.00     0.005 A 
ATOM      6  C   UNL d   1     -43.956  11.719  22.637  0.00  0.00     0.001 A 
ENDROOT
BRANCH   3   7
ATOM      7  C   UNL d   1     -43.052  12.941  21.052  0.00  0.00     0.300 C 
ATOM      8  O   UNL d   1     -43.063  12.657  20.276  0.00  0.00    -0.259 OA
BRANCH   7   9
ATOM      9  O   UNL d   1     -42.493  13.504  21.282  0.00  0.00    -0.271 OA
BRANCH   9  10
ATOM     10  C   UNL d   1     -41.905  13.735  20.755  0.00  0.00     0.126 C 
BRANCH  10  11
ATOM     11  C   UNL d   1     -41.369  14.312  20.973  0.00  0.00     0.027 A 
ATOM     12  C   UNL d   1     -40.661  14.096  21.310  0.00  0.00     0.028 A 
ATOM     13  C   UNL d   1     -40.122  14.677  21.529  0.00  0.00     0.119 A 
ATOM     14  O   UNL d   1     -39.370  14.632  21.878  0.00  0.00    -0.300 OA
ATOM     15  C   UNL d   1     -40.294  15.470  21.411  0.00  0.00     0.119 A 
ATOM     16  C   UNL d   1     -39.090  15.404  21.968  0.00  0.00     0.304 A 
ATOM     17  O   UNL d   1     -39.659  15.920  21.681  0.00  0.00    -0.300 OA
ATOM     18  C   UNL d   1     -41.012  15.687  21.069  0.00  0.00     0.026 A 
ATOM     19  C   UNL d   1     -41.550  15.105  20.850  0.00  0.00     0.004 A 
ENDBRANCH  10  11
ENDBRANCH   9  10
ENDBRANCH   7   9
ENDBRANCH   3   7
BRANCH   1  20
ATOM     20  S   UNL d   1     -45.605  13.124  22.351  0.00  0.00     0.271 S 
ATOM     21  O   UNL d   1     -45.838  12.933  21.576  0.00  0.00    -0.200 OA
ATOM     22  O   UNL d   1     -45.374  13.317  23.127  0.00  0.00    -0.200 OA
BRANCH  20  23
ATOM     23  N   UNL d   1     -46.343  13.498  22.428  0.00  0.00    -0.229 N 
ATOM     24  C   UNL d   1     -47.033  13.103  22.178  0.00  0.00     0.092 A 
ATOM     25  C   UNL d   1     -47.760  13.483  22.259  0.00  0.00     0.020 A 
ATOM     26  C   UNL d   1     -47.819  14.245  22.581  0.00  0.00     0.003 A 
ATOM     27  C   UNL d   1     -47.132  14.627  22.824  0.00  0.00     0.020 A 
ATOM     28  C   UNL d   1     -46.393  14.254  22.748  0.00  0.00     0.092 A 
ENDBRANCH  20  23
ENDBRANCH   1  20
TORSDOF 6
ENDMDL
MODEL 3
REMARK VINA RESULT:      -6.2      1.746      2.541
REMARK  6 active torsions:
REMARK  status: ('A' for Active; 'I' for Inactive)
REMARK    1  A    between atoms: N_2  and  S_1 
REMARK    2  A    between atoms: C_3  and  S_1 
REMARK    3  A    between atoms: C_4  and  C_9 
REMARK    4  A    between atoms: O_12  and  C_4 
REMARK    5  A    between atoms: C_19  and  O_12 
REMARK    6  A    between atoms: C_18  and  C_19 
ROOT
ATOM      1  C   UNL d   1     -48.296  12.460  23.008  0.00  0.00     0.104 A 
ATOM      2  C   UNL d   1     -47.587  12.895  22.953  0.00  0.00     0.018 A 
ATOM      3  C   UNL d   1     -46.894  12.579  23.273  0.00  0.00     0.064 A 
ATOM      4  C   UNL d   1     -48.312  11.723  23.377  0.00  0.00     0.013 A 
ATOM      5  C   UNL d   1     -46.907  11.837  23.645  0.00  0.00     0.005 A 
ATOM      6  C   UNL d   1     -47.618  11.407  23.698  0.00  0.00     0.001 A 
ENDROOT
BRANCH   3   7
ATOM      7  C   UNL d   1     -46.179  12.999  23.227  0.00  0.00     0.300 C 
ATOM      8  O   UNL d   1     -46.089  13.716  23.625  0.00  0.00    -0.259 OA
BRANCH   7   9
ATOM      9  O   UNL d   1     -45.558  12.691  22.776  0.00  0.00    -0.271 OA
BRANCH   9  10
ATOM     10  C   UNL d   1     -45.167  13.173  22.237  0.00  0.00     0.126 C 
BRANCH  10  11
ATOM     11  C   UNL d   1     -44.408  12.983  22.000  0.00  0.00     0.027 A 
ATOM     12  C   UNL d   1     -43.957  13.539  21.614  0.00  0.00     0.028 A 
ATOM     13  C   UNL d   1     -43.193  13.347  21.377  0.00  0.00     0.119 A 
ATOM     14  O   UNL d   1     -42.610  13.786  20.980  0.00  0.00    -0.300 OA
ATOM     15  C   UNL d   1     -42.885  12.602  21.525  0.00  0.00     0.119 A 
ATOM     16  C   UNL d   1     -41.949  13.300  20.892  0.00  0.00     0.304 A 
ATOM     17  O   UNL d   1     -42.119  12.571  21.228  0.00  0.00    -0.300 OA
ATOM     18  C   UNL d   1     -43.344  12.040  21.916  0.00  0.00     0.026 A 
ATOM     19  C   UNL d   1     -44.108  12.233  22.154  0.00  0.00     0.004 A 
ENDBRANCH  10  11
ENDBRANCH   9  10
ENDBRANCH   7   9
ENDBRANCH   3   7
BRANCH   1  20
ATOM     20  S   UNL d   1     -48.989  12.776  22.688  0.00  0.00     0.271 S 
ATOM     21  O   UNL d   1     -48.718  12.674  21.909  0.00  0.00    -0.200 OA
ATOM     22  O   UNL d   1     -49.264  12.879  23.466  0.00  0.00    -0.200 OA
BRANCH  20  23
ATOM     23  N   UNL d   1     -49.681  13.091  22.352  0.00  0.00    -0.229 N 
ATOM     24  C   UNL d   1     -50.096  12.655  21.776  0.00  0.00     0.092 A 
ATOM     25  C   UNL d   1     -50.781  12.978  21.450  0.00  0.00     0.020 A 
ATOM     26  C   UNL d   1     -51.064  13.722  21.681  0.00  0.00     0.003 A 
ATOM     27  C   UNL d   1     -50.648  14.145  22.252  0.00  0.00     0.020 A 
ATOM     28  C   UNL d   1     -49.956  13.830  22.588  0.00  0.00     0.092 A 
ENDBRANCH  20  23
ENDBRANCH   1  20
TORSDOF 6
ENDMDL
MODEL 4
REMARK VINA RESULT:      -6.1      8.206      9.702
REMARK  6 active torsions:
REMARK  status: ('A' for Active; 'I' for Inactive)
REMARK    1  A    between atoms: N_2  and  S_1 
REMARK    2  A    between atoms: C_3  and  S_1 
REMARK    3  A    between atoms: C_4  and  C_9 
REMARK    4  A    between atoms: O_12  and  C_4 
REMARK    5  A    between atoms: C_19  and  O_12 
REMARK    6  A    between atoms: C_18  and  C_19 
ROOT
ATOM      1  C   UNL d   1     -39.905  14.604  17.904  0.00  0.00     0.104 A 
ATOM      2  C   UNL d   1     -39.852  15.018  18.625  0.00  0.00     0.018 A 
ATOM      3  C   UNL d   1     -40.347  14.801  19.252  0.00  0.00     0.064 A 
ATOM      4  C   UNL d   1     -40.442  13.986  17.810  0.00  0.00     0.013 A 
ATOM      5  C   UNL d   1     -40.888  14.179  19.159  0.00  0.00     0.005 A 
ATOM      6  C   UNL d   1     -40.936  13.769  18.436  0.00  0.00     0.001 A 
ENDROOT
BRANCH   3   7
ATOM      7  C   UNL d   1     -40.307  15.203  19.977  0.00  0.00     0.300 C 
ATOM      8  O   UNL d   1     -40.700  15.922  20.079  0.00  0.00    -0.259 OA
BRANCH   7   9
ATOM      9  O   UNL d   1     -39.870  14.875  20.597  0.00  0.00    -0.271 OA
BRANCH   9  10
ATOM     10  C   UNL d   1     -39.791  15.287  21.305  0.00  0.00     0.126 C 
BRANCH  10  11
ATOM     11  C   UNL d   1     -39.320  14.985  21.900  0.00  0.00     0.027 A 
ATOM     12  C   UNL d   1     -39.423  14.216  22.143  0.00  0.00     0.028 A 
ATOM     13  C   UNL d   1     -38.948  13.913  22.741  0.00  0.00     0.119 A 
ATOM     14  O   UNL d   1     -38.921  13.165  23.102  0.00  0.00    -0.300 OA
ATOM     15  C   UNL d   1     -38.373  14.379  23.094  0.00  0.00     0.119 A 
ATOM     16  C   UNL d   1     -38.326  13.185  23.673  0.00  0.00     0.304 A 
ATOM     17  O   UNL d   1     -37.989  13.933  23.668  0.00  0.00    -0.300 OA
ATOM     18  C   UNL d   1     -38.270  15.159  22.846  0.00  0.00     0.026 A 
ATOM     19  C   UNL d   1     -38.745  15.461  22.247  0.00  0.00     0.004 A 
ENDBRANCH  10  11
ENDBRANCH   9  10
ENDBRANCH   7   9
ENDBRANCH   3   7
BRANCH   1  20
ATOM     20  S   UNL d   1     -39.411  14.821  17.278  0.00  0.00     0.271 S 
ATOM     21  O   UNL d   1     -39.987  15.323  16.950  0.00  0.00    -0.200 OA
ATOM     22  O   UNL d   1     -38.832  14.319  17.603  0.00  0.00    -0.200 OA
BRANCH  20  23
ATOM     23  N   UNL d   1     -38.924  15.047  16.643  0.00  0.00    -0.229 N 
ATOM     24  C   UNL d   1     -38.944  14.611  15.933  0.00  0.00     0.092 A 
ATOM     25  C   UNL d   1     -38.457  14.844  15.309  0.00  0.00     0.020 A 
ATOM     26  C   UNL d   1     -37.952  15.498  15.373  0.00  0.00     0.003 A 
ATOM     27  C   UNL d   1     -37.940  15.922  16.079  0.00  0.00     0.020 A 
ATOM     28  C   UNL d   1     -38.426  15.697  16.714  0.00  0.00     0.092 A 
ENDBRANCH  20  23
ENDBRANCH   1  20
TORSDOF 6
ENDMDL
MODEL 5
REMARK VINA RESULT:      -6.0      1.336      1.825
REMARK  6 active torsions:
REMARK  status: ('A' for Active; 'I' for Inactive)
REMARK    1  A    between atoms: N_2  and  S_1 
REMARK    2  A    between atoms: C_3  and  S_1 
REMARK    3  A    between atoms: C_4  and  C_9 
REMARK    4  A    between atoms: O_12  and  C_4 
REMARK    5  A    between atoms: C_19  and  O_12 
REMARK    6  A    between atoms: C_18  and  C_19 
ROOT
ATOM      1  C   UNL d   1     -47.959  13.976  22.746  0.00  0.00     0.104 A 
ATOM      2  C   UNL d   1     -47.825  13.194  23.002  0.00  0.00     0.018 A 
ATOM      3  C   UNL d   1     -47.051  12.949  23.159  0.00  0.00     0.064 A 
ATOM      4  C   UNL d   1     -47.332  14.502  22.647  0.00  0.00     0.013 A 
ATOM      5  C   UNL d   1     -46.418  13.477  23.061  0.00  0.00     0.005 A 
ATOM      6  C   UNL d   1     -46.559  14.257  22.805  0.00  0.00     0.001 A 
ENDROOT
BRANCH   3   7
ATOM      7  C   UNL d   1     -46.899  12.175  23.416  0.00  0.00     0.300 C 
ATOM      8  O   UNL d   1     -47.521  11.674  23.628  0.00  0.00    -0.259 OA
BRANCH   7   9
ATOM      9  O   UNL d   1     -46.118  11.908  23.457  0.00  0.00    -0.271 OA
BRANCH   9  10
ATOM     10  C   UNL d   1     -45.963  11.102  23.513  0.00  0.00     0.126 C 
BRANCH  10  11
ATOM     11  C   UNL d   1     -45.195  10.831  23.442  0.00  0.00     0.027 A 
ATOM     12  C   UNL d   1     -44.627  11.314  23.119  0.00  0.00     0.028 A 
ATOM     13  C   UNL d   1     -43.855  11.040  23.048  0.00  0.00     0.119 A 
ATOM     14  O   UNL d   1     -43.167  11.395  22.747  0.00  0.00    -0.300 OA
ATOM     15  C   UNL d   1     -43.656  10.286  23.299  0.00  0.00     0.119 A 
ATOM     16  C   UNL d   1     -42.552  10.849  22.820  0.00  0.00     0.304 A 
ATOM     17  O   UNL d   1     -42.853  10.166  23.159  0.00  0.00    -0.300 OA
ATOM     18  C   UNL d   1     -44.234   9.797  23.626  0.00  0.00     0.026 A 
ATOM     19  C   UNL d   1     -45.005  10.072  23.697  0.00  0.00     0.004 A 
ENDBRANCH  10  11
ENDBRANCH   9  10
ENDBRANCH   7   9
ENDBRANCH   3   7
BRANCH   1  20
ATOM     20  S   UNL d   1     -48.733  14.221  22.589  0.00  0.00     0.271 S 
ATOM     21  O   UNL d   1     -48.754  13.810  21.866  0.00  0.00    -0.200 OA
ATOM     22  O   UNL d   1     -48.714  14.634  23.311  0.00  0.00    -0.200 OA
BRANCH  20  23
ATOM     23  N   UNL d   1     -49.510  14.461  22.418  0.00  0.00    -0.229 N 
ATOM     24  C   UNL d   1     -50.011  13.956  21.984  0.00  0.00     0.092 A 
ATOM     25  C   UNL d   1     -50.781  14.204  21.821  0.00  0.00     0.020 A 
ATOM     26  C   UNL d   1     -51.064  14.939  22.078  0.00  0.00     0.003 A 
ATOM     27  C   UNL d   1     -50.562  15.430  22.506  0.00  0.00     0.020 A 
ATOM     28  C   UNL d   1     -49.784  15.192  22.677  0.00  0.00     0.092 A 
ENDBRANCH  20  23
ENDBRANCH   1  20
TORSDOF 6
ENDMDL
MODEL 6
REMARK VINA RESULT:      -6.0      1.965      2.654
REMARK  6 active torsions:
REMARK  status: ('A' for Active; 'I' for Inactive)
REMARK    1  A    between atoms: N_2  and  S_1 
REMARK    2  A    between atoms: C_3  and  S_1 
REMARK    3  A    between atoms: C_4  and  C_9 
REMARK    4  A    between atoms: O_12  and  C_4 
REMARK    5  A    between atoms: C_19  and  O_12 
REMARK    6  A    between atoms: C_18  and  C_19 
ROOT
ATOM      1  C   UNL d   1     -47.707  13.752  22.536  0.00  0.00     0.104 A 
ATOM      2  C   UNL d   1     -47.047  13.244  22.526  0.00  0.00     0.018 A 
ATOM      3  C   UNL d   1     -46.292  13.560  22.643  0.00  0.00     0.064 A 
ATOM      4  C   UNL d   1     -47.615  14.562  22.660  0.00  0.00     0.013 A 
ATOM      5  C   UNL d   1     -46.197  14.375  22.769  0.00  0.00     0.005 A 
ATOM      6  C   UNL d   1     -46.860  14.878  22.778  0.00  0.00     0.001 A 
ENDROOT
BRANCH   3   7
ATOM      7  C   UNL d   1     -45.624  13.068  22.636  0.00  0.00     0.300 C 
ATOM      8  O   UNL d   1     -45.612  12.373  23.082  0.00  0.00    -0.259 OA
BRANCH   7   9
ATOM      9  O   UNL d   1     -44.970  13.281  22.179  0.00  0.00    -0.271 OA
BRANCH   9  10
ATOM     10  C   UNL d   1     -44.488  12.697  21.857  0.00  0.00     0.126 C 
BRANCH  10  11
ATOM     11  C   UNL d   1     -43.712  12.870  21.666  0.00  0.00     0.027 A 
ATOM     12  C   UNL d   1     -43.522  13.614  21.397  0.00  0.00     0.028 A 
ATOM     13  C   UNL d   1     -42.742  13.787  21.205  0.00  0.00     0.119 A 
ATOM     14  O   UNL d   1     -42.382  14.481  20.923  0.00  0.00    -0.300 OA
ATOM     15  C   UNL d   1     -42.157  13.218  21.282  0.00  0.00     0.119 A 
ATOM     16  C   UNL d   1     -41.577  14.324  20.831  0.00  0.00     0.304 A 
ATOM     17  O   UNL d   1     -41.438  13.547  21.052  0.00  0.00    -0.300 OA
ATOM     18  C   UNL d   1     -42.352  12.465  21.554  0.00  0.00     0.026 A 
ATOM     19  C   UNL d   1     -43.133  12.292  21.746  0.00  0.00     0.004 A 
ENDBRANCH  10  11
ENDBRANCH   9  10
ENDBRANCH   7   9
ENDBRANCH   3   7
BRANCH   1  20
ATOM     20  S   UNL d   1     -48.462  13.436  22.419  0.00  0.00     0.271 S 
ATOM     21  O   UNL d   1     -48.339  13.354  21.600  0.00  0.00    -0.200 OA
ATOM     22  O   UNL d   1     -48.588  13.517  23.237  0.00  0.00    -0.200 OA
BRANCH  20  23
ATOM     23  N   UNL d   1     -49.218  13.117  22.287  0.00  0.00    -0.229 N 
ATOM     24  C   UNL d   1     -49.671  13.385  21.641  0.00  0.00     0.092 A 
ATOM     25  C   UNL d   1     -50.420  13.062  21.520  0.00  0.00     0.020 A 
ATOM     26  C   UNL d   1     -50.729  12.480  22.023  0.00  0.00     0.003 A 
ATOM     27  C   UNL d   1     -50.273  12.222  22.657  0.00  0.00     0.020 A 
ATOM     28  C   UNL d   1     -49.517  12.540  22.790  0.00  0.00     0.092 A 
ENDBRANCH  20  23
ENDBRANCH   1  20
TORSDOF 6
ENDMDL
MODEL 7
REMARK VINA RESULT:      -5.2      5.876      8.061
REMARK  6 active torsions:
REMARK  status: ('A' for Active; 'I' for Inactive)
REMARK    1  A    between atoms: N_2  and  S_1 
REMARK    2  A    between atoms: C_3  and  S_1 
REMARK    3  A    between atoms: C_4  and  C_9 
REMARK    4  A    between atoms: O_12  and  C_4 
REMARK    5  A    between atoms: C_19  and  O_12 
REMARK    6  A    between atoms: C_18  and  C_19 
ROOT
ATOM      1  C   UNL d   1     -40.357  14.739  19.125  0.00  0.00     0.104 A 
ATOM      2  C   UNL d   1     -40.573  14.224  19.742  0.00  0.00     0.018 A 
ATOM      3  C   UNL d   1     -41.003  14.520  20.383  0.00  0.00     0.064 A 
ATOM      4  C   UNL d   1     -40.566  15.536  19.146  0.00  0.00     0.013 A 
ATOM      5  C   UNL d   1     -41.215  15.323  20.407  0.00  0.00     0.005 A 
ATOM      6  C   UNL d   1     -40.995  15.833  19.787  0.00  0.00     0.001 A 
ENDROOT
BRANCH   3   7
ATOM      7  C   UNL d   1     -41.227  14.021  21.007  0.00  0.00     0.300 C 
ATOM      8  O   UNL d   1     -40.667  13.759  21.555  0.00  0.00    -0.259 OA
BRANCH   7   9
ATOM      9  O   UNL d   1     -42.017  13.788  21.075  0.00  0.00    -0.271 OA
BRANCH   9  10
ATOM     10  C   UNL d   1     -42.198  13.018  21.300  0.00  0.00     0.126 C 
BRANCH  10  11
ATOM     11  C   UNL d   1     -42.942  12.845  21.593  0.00  0.00     0.027 A 
ATOM     12  C   UNL d   1     -43.535  13.399  21.533  0.00  0.00     0.028 A 
ATOM     13  C   UNL d   1     -44.282  13.224  21.828  0.00  0.00     0.119 A 
ATOM     14  O   UNL d   1     -44.986  13.665  21.849  0.00  0.00    -0.300 OA
ATOM     15  C   UNL d   1     -44.433  12.499  22.179  0.00  0.00     0.119 A 
ATOM     16  C   UNL d   1     -45.560  13.199  22.216  0.00  0.00     0.304 A 
ATOM     17  O   UNL d   1     -45.220  12.481  22.419  0.00  0.00    -0.300 OA
ATOM     18  C   UNL d   1     -43.830  11.940  22.238  0.00  0.00     0.026 A 
ATOM     19  C   UNL d   1     -43.083  12.115  21.944  0.00  0.00     0.004 A 
ENDBRANCH  10  11
ENDBRANCH   9  10
ENDBRANCH   7   9
ENDBRANCH   3   7
BRANCH   1  20
ATOM     20  S   UNL d   1     -39.927  14.443  18.484  0.00  0.00     0.271 S 
ATOM     21  O   UNL d   1     -39.216  14.773  18.761  0.00  0.00    -0.200 OA
ATOM     22  O   UNL d   1     -40.636  14.111  18.203  0.00  0.00    -0.200 OA
BRANCH  20  23
ATOM     23  N   UNL d   1     -39.483  14.150  17.845  0.00  0.00    -0.229 N 
ATOM     24  C   UNL d   1     -39.059  13.438  17.929  0.00  0.00     0.092 A 
ATOM     25  C   UNL d   1     -38.621  13.158  17.289  0.00  0.00     0.020 A 
ATOM     26  C   UNL d   1     -38.595  13.566  16.568  0.00  0.00     0.003 A 
ATOM     27  C   UNL d   1     -39.018  14.269  16.494  0.00  0.00     0.020 A 
ATOM     28  C   UNL d   1     -39.462  14.561  17.133  0.00  0.00     0.092 A 
ENDBRANCH  20  23
ENDBRANCH   1  20
TORSDOF 6
ENDMDL
MODEL 8
REMARK VINA RESULT:      -4.2      4.505      7.071
REMARK  6 active torsions:
REMARK  status: ('A' for Active; 'I' for Inactive)
REMARK    1  A    between atoms: N_2  and  S_1 
REMARK    2  A    between atoms: C_3  and  S_1 
REMARK    3  A    between atoms: C_4  and  C_9 
REMARK    4  A    between atoms: O_12  and  C_4 
REMARK    5  A    between atoms: C_19  and  O_12 
REMARK    6  A    between atoms: C_18  and  C_19 
ROOT
ATOM      1  C   UNL d   1     -41.155  14.140  21.012  0.00  0.00     0.104 A 
ATOM      2  C   UNL d   1     -41.694  13.687  21.459  0.00  0.00     0.018 A 
ATOM      3  C   UNL d   1     -42.339  13.337  21.079  0.00  0.00     0.064 A 
ATOM      4  C   UNL d   1     -41.260  14.241  20.201  0.00  0.00     0.013 A 
ATOM      5  C   UNL d   1     -42.447  13.438  20.262  0.00  0.00     0.005 A 
ATOM      6  C   UNL d   1     -41.905  13.891  19.821  0.00  0.00     0.001 A 
ENDROOT
BRANCH   3   7
ATOM      7  C   UNL d   1     -42.885  12.883  21.509  0.00  0.00     0.300 C 
ATOM      8  O   UNL d   1     -42.681  12.131  21.781  0.00  0.00    -0.259 OA
BRANCH   7   9
ATOM      9  O   UNL d   1     -43.636  13.192  21.662  0.00  0.00    -0.271 OA
BRANCH   9  10
ATOM     10  C   UNL d   1     -44.273  12.683  21.774  0.00  0.00     0.126 C 
BRANCH  10  11
ATOM     11  C   UNL d   1     -44.954  12.959  22.131  0.00  0.00     0.027 A 
ATOM     12  C   UNL d   1     -45.437  12.439  22.530  0.00  0.00     0.028 A 
ATOM     13  C   UNL d   1     -46.122  12.717  22.889  0.00  0.00     0.119 A 
ATOM     14  O   UNL d   1     -46.714  12.331  23.327  0.00  0.00    -0.300 OA
ATOM     15  C   UNL d   1     -46.321  13.511  22.848  0.00  0.00     0.119 A 
ATOM     16  C   UNL d   1     -47.269  12.899  23.548  0.00  0.00     0.304 A 
ATOM     17  O   UNL d   1     -47.028  13.626  23.254  0.00  0.00    -0.300 OA
ATOM     18  C   UNL d   1     -45.831  14.036  22.444  0.00  0.00     0.026 A 
ATOM     19  C   UNL d   1     -45.146  13.758  22.085  0.00  0.00     0.004 A 
ENDBRANCH  10  11
ENDBRANCH   9  10
ENDBRANCH   7   9
ENDBRANCH   3   7
BRANCH   1  20
ATOM     20  S   UNL d   1     -40.510  14.490  21.392  0.00  0.00     0.271 S 
ATOM     21  O   UNL d   1     -40.060  13.792  21.347  0.00  0.00    -0.200 OA
ATOM     22  O   UNL d   1     -40.957  15.189  21.439  0.00  0.00    -0.200 OA
BRANCH  20  23
ATOM     23  N   UNL d   1     -39.853  14.829  21.773  0.00  0.00    -0.229 N 
ATOM     24  C   UNL d   1     -39.453  14.400  22.365  0.00  0.00     0.092 A 
ATOM     25  C   UNL d   1     -38.803  14.746  22.736  0.00  0.00     0.020 A 
ATOM     26  C   UNL d   1     -38.541  15.507  22.535  0.00  0.00     0.003 A 
ATOM     27  C   UNL d   1     -38.943  15.922  21.948  0.00  0.00     0.020 A 
ATOM     28  C   UNL d   1     -39.600  15.583  21.567  0.00  0.00     0.092 A 
ENDBRANCH  20  23
ENDBRANCH   1  20
TORSDOF 6
ENDMDL
MODEL 9
REMARK VINA RESULT:      -4.1      0.804      1.324
REMARK  6 active torsions:
REMARK  status: ('A' for Active; 'I' for Inactive)
REMARK    1  A    between atoms: N_2  and  S_1 
REMARK    2  A    between atoms: C_3  and  S_1 
REMARK    3  A    between atoms: C_4  and  C_9 
REMARK    4  A    between atoms: O_12  and  C_4 
REMARK    5  A    between atoms: C_19  and  O_12 
REMARK    6  A    between atoms: C_18  and  C_19 
ROOT
ATOM      1  C   UNL d   1     -48.904  14.255  22.526  0.00  0.00     0.104 A 
ATOM      2  C   UNL d   1     -48.072  14.211  22.503  0.00  0.00     0.018 A 
ATOM      3  C   UNL d   1     -47.633  14.909  22.436  0.00  0.00     0.064 A 
ATOM      4  C   UNL d   1     -49.291  14.981  22.482  0.00  0.00     0.013 A 
ATOM      5  C   UNL d   1     -48.020  15.642  22.392  0.00  0.00     0.005 A 
ATOM      6  C   UNL d   1     -48.852  15.679  22.415  0.00  0.00     0.001 A 
ENDROOT
BRANCH   3   7
ATOM      7  C   UNL d   1     -46.804  14.884  22.412  0.00  0.00     0.300 C 
ATOM      8  O   UNL d   1     -46.372  15.547  22.176  0.00  0.00    -0.259 OA
BRANCH   7   9
ATOM      9  O   UNL d   1     -46.414  14.187  22.626  0.00  0.00    -0.271 OA
BRANCH   9  10
ATOM     10  C   UNL d   1     -45.624  14.081  22.422  0.00  0.00     0.126 C 
BRANCH  10  11
ATOM     11  C   UNL d   1     -45.283  13.342  22.492  0.00  0.00     0.027 A 
ATOM     12  C   UNL d   1     -45.553  12.828  23.062  0.00  0.00     0.028 A 
ATOM     13  C   UNL d   1     -45.209  12.085  23.132  0.00  0.00     0.119 A 
ATOM     14  O   UNL d   1     -45.359  11.451  23.648  0.00  0.00    -0.300 OA
ATOM     15  C   UNL d   1     -44.598  11.859  22.633  0.00  0.00     0.119 A 
ATOM     16  C   UNL d   1     -44.835  10.843  23.455  0.00  0.00     0.304 A 
ATOM     17  O   UNL d   1     -44.367  11.094  22.831  0.00  0.00    -0.300 OA
ATOM     18  C   UNL d   1     -44.327  12.382  22.056  0.00  0.00     0.026 A 
ATOM     19  C   UNL d   1     -44.671  13.125  21.987  0.00  0.00     0.004 A 
ENDBRANCH  10  11
ENDBRANCH   9  10
ENDBRANCH   7   9
ENDBRANCH   3   7
BRANCH   1  20
ATOM     20  S   UNL d   1     -49.342  13.557  22.593  0.00  0.00     0.271 S 
ATOM     21  O   UNL d   1     -48.799  13.225  23.127  0.00  0.00    -0.200 OA
ATOM     22  O   UNL d   1     -49.888  13.887  22.058  0.00  0.00    -0.200 OA
BRANCH  20  23
ATOM     23  N   UNL d   1     -49.774  12.851  22.669  0.00  0.00    -0.229 N 
ATOM     24  C   UNL d   1     -50.022  12.444  21.986  0.00  0.00     0.092 A 
ATOM     25  C   UNL d   1     -50.450  11.744  22.073  0.00  0.00     0.020 A 
ATOM     26  C   UNL d   1     -50.636  11.439  22.821  0.00  0.00     0.003 A 
ATOM     27  C   UNL d   1     -50.386  11.848  23.490  0.00  0.00     0.020 A 
ATOM     28  C   UNL d   1     -49.954  12.555  23.415  0.00  0.00     0.092 A 
ENDBRANCH  20  23
ENDBRANCH   1  20
TORSDOF 6
ENDMDL
