MODEL 1
REMARK VINA RESULT:      69.4      0.000      0.000
REMARK  6 active torsions:
REMARK  status: ('A' for Active; 'I' for Inactive)
REMARK    1  A    between atoms: C_7  and  N_1 
REMARK    2  A    between atoms: S_10  and  C_2 
REMARK    3  A    between atoms: C_22  and  S_10 
REMARK    4  A    between atoms: C_13  and  C_22 
REMARK       I    between atoms: N_17  and  C_13 
REMARK    5  A    between atoms: C_14  and  C_23 
REMARK    6  A    between atoms: C_23  and  N_17 
ROOT
ATOM      1  N   UNL d   1     -51.471  24.630  33.768  0.00  0.00    -0.254 N 
ATOM      2  C   UNL d   1     -51.897  25.285  34.039  0.00  0.00     0.183 A 
ATOM      3  N   UNL d   1     -52.708  25.230  34.168  0.00  0.00    -0.201 NA
ATOM      4  C   UNL d   1     -51.874  23.919  33.630  0.00  0.00     0.271 A 
ATOM      5  C   UNL d   1     -52.679  23.871  33.761  0.00  0.00     0.115 A 
ATOM      6  C   UNL d   1     -53.096  24.524  34.029  0.00  0.00     0.192 A 
ATOM      7  N   UNL d   1     -53.953  23.518  33.886  0.00  0.00    -0.145 NA
ATOM      8  N   UNL d   1     -53.886  24.304  34.107  0.00  0.00    -0.128 NA
ATOM      9  C   UNL d   1     -53.204  23.242  33.669  0.00  0.00     0.130 A 
ATOM     10  O   UNL d   1     -51.450  23.261  33.359  0.00  0.00    -0.266 OA
ENDROOT
BRANCH   2  11
ATOM     11  S   UNL d   1     -51.504  26.003  34.181  0.00  0.00    -0.044 SA
BRANCH  11  12
ATOM     12  C   UNL d   1     -51.828  26.549  34.704  0.00  0.00     0.101 C 
BRANCH  12  13
ATOM     13  C   UNL d   1     -51.480  26.676  35.441  0.00  0.00     0.286 C 
ATOM     14  N   UNL d   1     -51.775  26.280  36.106  0.00  0.00    -0.204 NA
ATOM     15  O   UNL d   1     -50.841  27.193  35.520  0.00  0.00    -0.265 OA
BRANCH  14  16
ATOM     16  C   UNL d   1     -51.428  26.405  36.845  0.00  0.00     0.127 C 
BRANCH  16  17
ATOM     17  C   UNL d   1     -51.748  26.039  37.516  0.00  0.00     0.119 A 
ATOM     18  O   UNL d   1     -52.494  26.160  37.828  0.00  0.00    -0.304 OA
ATOM     19  C   UNL d   1     -52.582  25.684  38.496  0.00  0.00     0.123 A 
ATOM     20  C   UNL d   1     -51.886  25.265  38.597  0.00  0.00     0.029 A 
ATOM     21  C   UNL d   1     -51.368  25.477  37.999  0.00  0.00     0.028 A 
ENDBRANCH  16  17
ENDBRANCH  14  16
ENDBRANCH  12  13
ENDBRANCH  11  12
ENDBRANCH   2  11
BRANCH   1  22
ATOM     22  C   UNL d   1     -50.665  24.684  33.639  0.00  0.00     0.075 A 
ATOM     23  C   UNL d   1     -50.194  24.005  33.685  0.00  0.00     0.051 A 
ATOM     24 BR   UNL d   1     -50.536  23.279  33.860  0.00  0.00    -0.048 Br
ATOM     25  C   UNL d   1     -49.382  24.059  33.555  0.00  0.00     0.008 A 
ATOM     26  C   UNL d   1     -49.040  24.791  33.379  0.00  0.00     0.001 A 
ATOM     27  C   UNL d   1     -49.515  25.467  33.335  0.00  0.00     0.002 A 
ATOM     28  C   UNL d   1     -50.326  25.412  33.465  0.00  0.00     0.018 A 
ENDBRANCH   1  22
TORSDOF 6
ENDMDL
MODEL 2
REMARK VINA RESULT:      70.9      5.233      6.967
REMARK  6 active torsions:
REMARK  status: ('A' for Active; 'I' for Inactive)
REMARK    1  A    between atoms: C_7  and  N_1 
REMARK    2  A    between atoms: S_10  and  C_2 
REMARK    3  A    between atoms: C_22  and  S_10 
REMARK    4  A    between atoms: C_13  and  C_22 
REMARK       I    between atoms: N_17  and  C_13 
REMARK    5  A    between atoms: C_14  and  C_23 
REMARK    6  A    between atoms: C_23  and  N_17 
ROOT
ATOM      1  N   UNL d   1     -47.690  30.778  35.148  0.00  0.00    -0.254 N 
ATOM      2  C   UNL d   1     -48.232  30.461  34.611  0.00  0.00     0.183 A 
ATOM      3  N   UNL d   1     -48.547  30.928  34.011  0.00  0.00    -0.201 NA
ATOM      4  C   UNL d   1     -47.470  31.574  35.072  0.00  0.00     0.271 A 
ATOM      5  C   UNL d   1     -47.786  32.032  34.474  0.00  0.00     0.115 A 
ATOM      6  C   UNL d   1     -48.323  31.712  33.944  0.00  0.00     0.192 A 
ATOM      7  N   UNL d   1     -48.133  32.986  33.619  0.00  0.00    -0.145 NA
ATOM      8  N   UNL d   1     -48.539  32.304  33.414  0.00  0.00    -0.128 NA
ATOM      9  C   UNL d   1     -47.663  32.824  34.278  0.00  0.00     0.130 A 
ATOM     10  O   UNL d   1     -46.927  31.895  35.608  0.00  0.00    -0.266 OA
ENDROOT
BRANCH   2  11
ATOM     11  S   UNL d   1     -48.461  29.665  34.677  0.00  0.00    -0.044 SA
BRANCH  11  12
ATOM     12  C   UNL d   1     -48.880  29.308  34.064  0.00  0.00     0.101 C 
BRANCH  12  13
ATOM     13  C   UNL d   1     -48.929  28.486  34.018  0.00  0.00     0.286 C 
ATOM     14  N   UNL d   1     -49.672  28.122  33.971  0.00  0.00    -0.204 NA
ATOM     15  O   UNL d   1     -48.244  28.024  34.020  0.00  0.00    -0.265 OA
BRANCH  14  16
ATOM     16  C   UNL d   1     -49.724  27.299  33.925  0.00  0.00     0.127 C 
BRANCH  16  17
ATOM     17  C   UNL d   1     -50.432  26.946  33.684  0.00  0.00     0.119 A 
ATOM     18  O   UNL d   1     -51.140  27.327  33.530  0.00  0.00    -0.304 OA
ATOM     19  C   UNL d   1     -51.700  26.764  33.307  0.00  0.00     0.123 A 
ATOM     20  C   UNL d   1     -51.338  26.031  33.322  0.00  0.00     0.029 A 
ATOM     21  C   UNL d   1     -50.558  26.133  33.553  0.00  0.00     0.028 A 
ENDBRANCH  16  17
ENDBRANCH  14  16
ENDBRANCH  12  13
ENDBRANCH  11  12
ENDBRANCH   2  11
BRANCH   1  22
ATOM     22  C   UNL d   1     -47.377  30.314  35.744  0.00  0.00     0.075 A 
ATOM     23  C   UNL d   1     -46.611  30.009  35.669  0.00  0.00     0.051 A 
ATOM     24 BR   UNL d   1     -46.167  30.173  34.998  0.00  0.00    -0.048 Br
ATOM     25  C   UNL d   1     -46.295  29.541  36.269  0.00  0.00     0.008 A 
ATOM     26  C   UNL d   1     -46.743  29.378  36.945  0.00  0.00     0.001 A 
ATOM     27  C   UNL d   1     -47.508  29.685  37.015  0.00  0.00     0.002 A 
ATOM     28  C   UNL d   1     -47.824  30.152  36.415  0.00  0.00     0.018 A 
ENDBRANCH   1  22
TORSDOF 6
ENDMDL
