MODEL 1
REMARK VINA RESULT:       5.9      0.000      0.000
REMARK  1 active torsions:
REMARK  status: ('A' for Active; 'I' for Inactive)
REMARK    1  A    between atoms: C_14  and  C_7 
ROOT
ATOM      1  C   UNL d   1     -41.214-120.586 -51.451  0.00  0.00     0.121 A 
ATOM      2  C   UNL d   1     -41.368-120.708 -52.252  0.00  0.00     0.058 A 
ATOM      3  N   UNL d   1     -41.123-119.773 -51.335  0.00  0.00    -0.195 NA
ATOM      4  S   UNL d   1     -41.176-121.226 -50.936  0.00  0.00    -0.068 SA
ATOM      5  C   UNL d   1     -41.292-121.981 -51.223  0.00  0.00     0.027 A 
ATOM      6  C   UNL d   1     -41.447-122.103 -52.024  0.00  0.00     0.003 A 
ATOM      7  C   UNL d   1     -41.485-121.471 -52.537  0.00  0.00     0.010 A 
ATOM      8  C   UNL d   1     -41.220-119.395 -52.055  0.00  0.00     0.311 A 
ATOM      9  S   UNL d   1     -41.373-119.971 -52.629  0.00  0.00    -0.024 SA
ATOM     10  C   UNL d   1     -41.496-123.067 -51.841  0.00  0.00    -0.017 A 
ATOM     11  C   UNL d   1     -41.336-123.046 -50.957  0.00  0.00    -0.012 A 
ATOM     12  C   UNL d   1     -41.220-123.507 -50.090  0.00  0.00     0.053 A 
ATOM     13  O   UNL d   1     -41.175-118.582 -52.188  0.00  0.00    -0.258 OA
ATOM     14  C   UNL d   1     -41.685-123.817 -52.535  0.00  0.00    -0.004 A 
ATOM     15  C   UNL d   1     -41.513-123.622 -51.672  0.00  0.00    -0.004 A 
ENDROOT
BRANCH   7  16
ATOM     16  C   UNL d   1     -41.639-121.593 -53.338  0.00  0.00     0.020 A 
ATOM     17  C   UNL d   1     -42.316-121.258 -53.683  0.00  0.00     0.099 A 
ATOM     18  N   UNL d   1     -42.463-121.385 -54.485  0.00  0.00    -0.242 NA
ATOM     19  C   UNL d   1     -41.948-121.837 -54.940  0.00  0.00     0.099 A 
ATOM     20  C   UNL d   1     -41.277-122.167 -54.589  0.00  0.00     0.021 A 
ATOM     21  C   UNL d   1     -41.124-122.046 -53.793  0.00  0.00     0.003 A 
ENDBRANCH   7  16
TORSDOF 1
ENDMDL
MODEL 2
REMARK VINA RESULT:       6.4      2.885      4.162
REMARK  1 active torsions:
REMARK  status: ('A' for Active; 'I' for Inactive)
REMARK    1  A    between atoms: C_14  and  C_7 
ROOT
ATOM      1  C   UNL d   1     -41.466-123.573 -50.249  0.00  0.00     0.121 A 
ATOM      2  C   UNL d   1     -42.214-123.248 -50.375  0.00  0.00     0.058 A 
ATOM      3  N   UNL d   1     -41.123-123.704 -50.988  0.00  0.00    -0.195 NA
ATOM      4  S   UNL d   1     -41.199-123.705 -49.482  0.00  0.00    -0.068 SA
ATOM      5  C   UNL d   1     -41.677-123.514 -48.850  0.00  0.00     0.027 A 
ATOM      6  C   UNL d   1     -42.424-123.188 -48.976  0.00  0.00     0.003 A 
ATOM      7  C   UNL d   1     -42.693-123.056 -49.735  0.00  0.00     0.010 A 
ATOM      8  C   UNL d   1     -41.651-123.464 -51.567  0.00  0.00     0.311 A 
ATOM      9  S   UNL d   1     -42.331-123.179 -51.192  0.00  0.00    -0.024 SA
ATOM     10  C   UNL d   1     -42.547-123.157 -48.002  0.00  0.00    -0.017 A 
ATOM     11  C   UNL d   1     -41.756-123.504 -47.754  0.00  0.00    -0.012 A 
ATOM     12  C   UNL d   1     -41.123-123.793 -47.052  0.00  0.00     0.053 A 
ATOM     13  O   UNL d   1     -41.528-123.498 -52.382  0.00  0.00    -0.258 OA
ATOM     14  C   UNL d   1     -43.385-122.807 -47.497  0.00  0.00    -0.004 A 
ATOM     15  C   UNL d   1     -42.561-123.164 -47.422  0.00  0.00    -0.004 A 
ENDROOT
BRANCH   7  16
ATOM     16  C   UNL d   1     -43.441-122.730 -49.861  0.00  0.00     0.020 A 
ATOM     17  C   UNL d   1     -44.105-123.227 -49.899  0.00  0.00     0.099 A 
ATOM     18  N   UNL d   1     -44.849-122.894 -50.026  0.00  0.00    -0.242 NA
ATOM     19  C   UNL d   1     -44.935-122.080 -50.113  0.00  0.00     0.099 A 
ATOM     20  C   UNL d   1     -44.270-121.594 -50.074  0.00  0.00     0.021 A 
ATOM     21  C   UNL d   1     -43.527-121.917 -49.948  0.00  0.00     0.003 A 
ENDBRANCH   7  16
TORSDOF 1
ENDMDL
MODEL 3
REMARK VINA RESULT:       6.5      1.847      3.455
REMARK  1 active torsions:
REMARK  status: ('A' for Active; 'I' for Inactive)
REMARK    1  A    between atoms: C_14  and  C_7 
ROOT
ATOM      1  C   UNL d   1     -41.888-121.914 -53.669  0.00  0.00     0.121 A 
ATOM      2  C   UNL d   1     -41.911-122.453 -53.044  0.00  0.00     0.058 A 
ATOM      3  N   UNL d   1     -42.068-122.326 -54.361  0.00  0.00    -0.195 NA
ATOM      4  S   UNL d   1     -41.707-121.124 -53.525  0.00  0.00    -0.068 SA
ATOM      5  C   UNL d   1     -41.551-120.879 -52.763  0.00  0.00     0.027 A 
ATOM      6  C   UNL d   1     -41.574-121.418 -52.138  0.00  0.00     0.003 A 
ATOM      7  C   UNL d   1     -41.753-122.201 -52.277  0.00  0.00     0.010 A 
ATOM      8  C   UNL d   1     -42.201-123.111 -54.169  0.00  0.00     0.311 A 
ATOM      9  S   UNL d   1     -42.105-123.196 -53.352  0.00  0.00    -0.024 SA
ATOM     10  C   UNL d   1     -41.340-120.684 -51.529  0.00  0.00    -0.017 A 
ATOM     11  C   UNL d   1     -41.288-120.018 -52.132  0.00  0.00    -0.012 A 
ATOM     12  C   UNL d   1     -41.127-119.070 -52.358  0.00  0.00     0.053 A 
ATOM     13  O   UNL d   1     -42.398-123.714 -54.697  0.00  0.00    -0.258 OA
ATOM     14  C   UNL d   1     -41.211-120.753 -50.501  0.00  0.00    -0.004 A 
ATOM     15  C   UNL d   1     -41.201-120.212 -51.221  0.00  0.00    -0.004 A 
ENDROOT
BRANCH   7  16
ATOM     16  C   UNL d   1     -41.776-122.740 -51.653  0.00  0.00     0.020 A 
ATOM     17  C   UNL d   1     -42.461-122.802 -51.187  0.00  0.00     0.099 A 
ATOM     18  N   UNL d   1     -42.475-123.343 -50.564  0.00  0.00    -0.242 NA
ATOM     19  C   UNL d   1     -41.822-123.817 -50.405  0.00  0.00     0.099 A 
ATOM     20  C   UNL d   1     -41.146-123.750 -50.873  0.00  0.00     0.021 A 
ATOM     21  C   UNL d   1     -41.123-123.214 -51.493  0.00  0.00     0.003 A 
ENDBRANCH   7  16
TORSDOF 1
ENDMDL
MODEL 4
REMARK VINA RESULT:       7.5      1.779      3.170
REMARK  1 active torsions:
REMARK  status: ('A' for Active; 'I' for Inactive)
REMARK    1  A    between atoms: C_14  and  C_7 
ROOT
ATOM      1  C   UNL d   1     -41.343-123.409 -51.362  0.00  0.00     0.121 A 
ATOM      2  C   UNL d   1     -41.299-122.595 -51.237  0.00  0.00     0.058 A 
ATOM      3  N   UNL d   1     -41.368-123.775 -50.622  0.00  0.00    -0.195 NA
ATOM      4  S   UNL d   1     -41.353-123.708 -52.129  0.00  0.00    -0.068 SA
ATOM      5  C   UNL d   1     -41.320-123.196 -52.762  0.00  0.00     0.027 A 
ATOM      6  C   UNL d   1     -41.276-122.381 -52.637  0.00  0.00     0.003 A 
ATOM      7  C   UNL d   1     -41.266-122.081 -51.879  0.00  0.00     0.010 A 
ATOM      8  C   UNL d   1     -41.341-123.194 -50.045  0.00  0.00     0.311 A 
ATOM      9  S   UNL d   1     -41.298-122.459 -50.420  0.00  0.00    -0.024 SA
ATOM     10  C   UNL d   1     -41.262-122.258 -53.611  0.00  0.00    -0.017 A 
ATOM     11  C   UNL d   1     -41.307-123.121 -53.858  0.00  0.00    -0.012 A 
ATOM     12  C   UNL d   1     -41.339-123.817 -54.559  0.00  0.00     0.053 A 
ATOM     13  O   UNL d   1     -41.355-123.319 -49.229  0.00  0.00    -0.258 OA
ATOM     14  C   UNL d   1     -41.208-121.352 -54.118  0.00  0.00    -0.004 A 
ATOM     15  C   UNL d   1     -41.257-122.249 -54.192  0.00  0.00    -0.004 A 
ENDROOT
BRANCH   7  16
ATOM     16  C   UNL d   1     -41.223-121.266 -51.754  0.00  0.00     0.020 A 
ATOM     17  C   UNL d   1     -41.208-120.750 -52.404  0.00  0.00     0.099 A 
ATOM     18  N   UNL d   1     -41.165-119.937 -52.270  0.00  0.00    -0.242 NA
ATOM     19  C   UNL d   1     -41.136-119.639 -51.504  0.00  0.00     0.099 A 
ATOM     20  C   UNL d   1     -41.151-120.159 -50.863  0.00  0.00     0.021 A 
ATOM     21  C   UNL d   1     -41.194-120.968 -50.988  0.00  0.00     0.003 A 
ENDBRANCH   7  16
TORSDOF 1
ENDMDL
