MODEL 1
REMARK VINA RESULT:      -3.2      0.000      0.000
REMARK  4 active torsions:
REMARK  status: ('A' for Active; 'I' for Inactive)
REMARK    1  A    between atoms: C_2  and  C_1 
REMARK       I    between atoms: N_3  and  C_1 
REMARK       I    between atoms: N_4  and  C_2 
REMARK    2  A    between atoms: C_8  and  N_3 
REMARK    3  A    between atoms: C_9  and  N_4 
REMARK    4  A    between atoms: C_10  and  C_9 
ROOT
ATOM      1  C   UNL d   1      31.306  16.096 -24.547  0.00  0.00     0.337 C 
ATOM      2  N   UNL d   1      30.577  16.080 -24.934  0.00  0.00    -0.204 NA
ATOM      3  O   UNL d   1      32.002  15.986 -24.976  0.00  0.00    -0.260 OA
ENDROOT
BRANCH   1   4
ATOM      4  C   UNL d   1      31.337  16.221 -23.736  0.00  0.00     0.337 C 
ATOM      5  N   UNL d   1      31.749  16.873 -23.432  0.00  0.00    -0.201 NA
ATOM      6  O   UNL d   1      30.959  15.698 -23.222  0.00  0.00    -0.260 OA
BRANCH   5   7
ATOM      7  C   UNL d   1      32.127  17.396 -23.946  0.00  0.00     0.121 C 
BRANCH   7   8
ATOM      8  C   UNL d   1      32.495  18.063 -23.660  0.00  0.00     0.101 A 
ATOM      9  N   UNL d   1      32.703  18.101 -22.862  0.00  0.00    -0.242 NA
ATOM     10  C   UNL d   1      33.077  18.775 -22.565  0.00  0.00     0.099 A 
ATOM     11  C   UNL d   1      33.241  19.406 -23.063  0.00  0.00     0.021 A 
ATOM     12  C   UNL d   1      33.033  19.367 -23.861  0.00  0.00     0.003 A 
ATOM     13  C   UNL d   1      32.659  18.694 -24.158  0.00  0.00     0.021 A 
ENDBRANCH   7   8
ENDBRANCH   5   7
ENDBRANCH   1   4
BRANCH   2  14
ATOM     14  C   UNL d   1      29.881  16.190 -24.505  0.00  0.00     0.085 A 
ATOM     15  C   UNL d   1      29.520  16.932 -24.486  0.00  0.00     0.019 A 
ATOM     16  C   UNL d   1      28.824  17.042 -24.058  0.00  0.00     0.002 A 
ATOM     17  C   UNL d   1      28.489  16.409 -23.647  0.00  0.00     0.000 A 
ATOM     18  C   UNL d   1      28.848  15.676 -23.668  0.00  0.00     0.002 A 
ATOM     19  C   UNL d   1      27.792  16.519 -23.218  0.00  0.00     0.000 C 
ATOM     20  C   UNL d   1      29.545  15.566 -24.097  0.00  0.00     0.019 A 
ENDBRANCH   2  14
TORSDOF 4
ENDMDL
MODEL 2
REMARK VINA RESULT:      -3.1      1.067      4.068
REMARK  4 active torsions:
REMARK  status: ('A' for Active; 'I' for Inactive)
REMARK    1  A    between atoms: C_2  and  C_1 
REMARK       I    between atoms: N_3  and  C_1 
REMARK       I    between atoms: N_4  and  C_2 
REMARK    2  A    between atoms: C_8  and  N_3 
REMARK    3  A    between atoms: C_9  and  N_4 
REMARK    4  A    between atoms: C_10  and  C_9 
ROOT
ATOM      1  C   UNL d   1      32.580  17.440 -24.531  0.00  0.00     0.337 C 
ATOM      2  N   UNL d   1      33.239  17.657 -24.085  0.00  0.00    -0.204 NA
ATOM      3  O   UNL d   1      32.617  16.781 -25.026  0.00  0.00    -0.260 OA
ENDROOT
BRANCH   1   4
ATOM      4  C   UNL d   1      31.888  17.879 -24.481  0.00  0.00     0.337 C 
ATOM      5  N   UNL d   1      31.185  17.520 -24.227  0.00  0.00    -0.201 NA
ATOM      6  O   UNL d   1      31.890  18.679 -24.683  0.00  0.00    -0.260 OA
BRANCH   5   7
ATOM      7  C   UNL d   1      31.183  16.720 -24.025  0.00  0.00     0.121 C 
BRANCH   7   8
ATOM      8  C   UNL d   1      30.505  16.366 -23.748  0.00  0.00     0.101 A 
ATOM      9  N   UNL d   1      30.555  15.816 -23.134  0.00  0.00    -0.242 NA
ATOM     10  C   UNL d   1      29.871  15.453 -22.848  0.00  0.00     0.099 A 
ATOM     11  C   UNL d   1      29.142  15.638 -23.174  0.00  0.00     0.021 A 
ATOM     12  C   UNL d   1      29.091  16.188 -23.788  0.00  0.00     0.003 A 
ATOM     13  C   UNL d   1      29.776  16.551 -24.074  0.00  0.00     0.021 A 
ENDBRANCH   7   8
ENDBRANCH   5   7
ENDBRANCH   1   4
BRANCH   2  14
ATOM     14  C   UNL d   1      33.202  18.316 -23.589  0.00  0.00     0.085 A 
ATOM     15  C   UNL d   1      33.238  19.076 -23.910  0.00  0.00     0.019 A 
ATOM     16  C   UNL d   1      33.201  19.735 -23.414  0.00  0.00     0.002 A 
ATOM     17  C   UNL d   1      33.128  19.634 -22.599  0.00  0.00     0.000 A 
ATOM     18  C   UNL d   1      33.093  18.880 -22.285  0.00  0.00     0.002 A 
ATOM     19  C   UNL d   1      33.090  20.292 -22.103  0.00  0.00     0.000 C 
ATOM     20  C   UNL d   1      33.130  18.221 -22.780  0.00  0.00     0.019 A 
ENDBRANCH   2  14
TORSDOF 4
ENDMDL
MODEL 3
REMARK VINA RESULT:      -2.6      0.986      1.483
REMARK  4 active torsions:
REMARK  status: ('A' for Active; 'I' for Inactive)
REMARK    1  A    between atoms: C_2  and  C_1 
REMARK       I    between atoms: N_3  and  C_1 
REMARK       I    between atoms: N_4  and  C_2 
REMARK    2  A    between atoms: C_8  and  N_3 
REMARK    3  A    between atoms: C_9  and  N_4 
REMARK    4  A    between atoms: C_10  and  C_9 
ROOT
ATOM      1  C   UNL d   1      32.481  17.090 -24.496  0.00  0.00     0.337 C 
ATOM      2  N   UNL d   1      31.846  16.910 -24.991  0.00  0.00    -0.204 NA
ATOM      3  O   UNL d   1      33.209  17.303 -24.820  0.00  0.00    -0.260 OA
ENDROOT
BRANCH   1   4
ATOM      4  C   UNL d   1      32.387  17.058 -23.680  0.00  0.00     0.337 C 
ATOM      5  N   UNL d   1      32.576  17.716 -23.213  0.00  0.00    -0.201 NA
ATOM      6  O   UNL d   1      32.104  16.370 -23.323  0.00  0.00    -0.260 OA
BRANCH   5   7
ATOM      7  C   UNL d   1      32.860  18.404 -23.570  0.00  0.00     0.121 C 
BRANCH   7   8
ATOM      8  C   UNL d   1      32.981  19.077 -23.130  0.00  0.00     0.101 A 
ATOM      9  N   UNL d   1      33.105  19.797 -23.515  0.00  0.00    -0.242 NA
ATOM     10  C   UNL d   1      33.229  20.484 -23.074  0.00  0.00     0.099 A 
ATOM     11  C   UNL d   1      33.229  20.452 -22.255  0.00  0.00     0.021 A 
ATOM     12  C   UNL d   1      33.105  19.732 -21.870  0.00  0.00     0.003 A 
ATOM     13  C   UNL d   1      32.981  19.044 -22.311  0.00  0.00     0.021 A 
ENDBRANCH   7   8
ENDBRANCH   5   7
ENDBRANCH   1   4
BRANCH   2  14
ATOM     14  C   UNL d   1      31.118  16.697 -24.666  0.00  0.00     0.085 A 
ATOM     15  C   UNL d   1      30.495  17.238 -24.660  0.00  0.00     0.019 A 
ATOM     16  C   UNL d   1      29.767  17.026 -24.335  0.00  0.00     0.002 A 
ATOM     17  C   UNL d   1      29.662  16.271 -24.018  0.00  0.00     0.000 A 
ATOM     18  C   UNL d   1      30.281  15.738 -24.026  0.00  0.00     0.002 A 
ATOM     19  C   UNL d   1      28.934  16.059 -23.693  0.00  0.00     0.000 C 
ATOM     20  C   UNL d   1      31.009  15.950 -24.350  0.00  0.00     0.019 A 
ENDBRANCH   2  14
TORSDOF 4
ENDMDL
MODEL 4
REMARK VINA RESULT:      -2.1      1.917      3.031
REMARK  4 active torsions:
REMARK  status: ('A' for Active; 'I' for Inactive)
REMARK    1  A    between atoms: C_2  and  C_1 
REMARK       I    between atoms: N_3  and  C_1 
REMARK       I    between atoms: N_4  and  C_2 
REMARK    2  A    between atoms: C_8  and  N_3 
REMARK    3  A    between atoms: C_9  and  N_4 
REMARK    4  A    between atoms: C_10  and  C_9 
ROOT
ATOM      1  C   UNL d   1      32.862  18.997 -23.960  0.00  0.00     0.337 C 
ATOM      2  N   UNL d   1      32.304  18.657 -24.464  0.00  0.00    -0.204 NA
ATOM      3  O   UNL d   1      33.236  19.701 -24.174  0.00  0.00    -0.260 OA
ENDROOT
BRANCH   1   4
ATOM      4  C   UNL d   1      33.044  18.635 -23.245  0.00  0.00     0.337 C 
ATOM      5  N   UNL d   1      33.031  19.074 -22.542  0.00  0.00    -0.201 NA
ATOM      6  O   UNL d   1      33.241  17.834 -23.225  0.00  0.00    -0.260 OA
BRANCH   5   7
ATOM      7  C   UNL d   1      32.834  19.875 -22.561  0.00  0.00     0.121 C 
BRANCH   7   8
ATOM      8  C   UNL d   1      32.836  20.317 -21.879  0.00  0.00     0.101 A 
ATOM      9  N   UNL d   1      33.223  20.029 -21.209  0.00  0.00    -0.242 NA
ATOM     10  C   UNL d   1      33.228  20.473 -20.512  0.00  0.00     0.099 A 
ATOM     11  C   UNL d   1      32.849  21.200 -20.486  0.00  0.00     0.021 A 
ATOM     12  C   UNL d   1      32.461  21.487 -21.156  0.00  0.00     0.003 A 
ATOM     13  C   UNL d   1      32.456  21.043 -21.853  0.00  0.00     0.021 A 
ENDBRANCH   7   8
ENDBRANCH   5   7
ENDBRANCH   1   4
BRANCH   2  14
ATOM     14  C   UNL d   1      31.930  17.954 -24.249  0.00  0.00     0.085 A 
ATOM     15  C   UNL d   1      32.274  17.228 -24.442  0.00  0.00     0.019 A 
ATOM     16  C   UNL d   1      31.899  16.525 -24.227  0.00  0.00     0.002 A 
ATOM     17  C   UNL d   1      31.182  16.547 -23.820  0.00  0.00     0.000 A 
ATOM     18  C   UNL d   1      30.845  17.267 -23.631  0.00  0.00     0.002 A 
ATOM     19  C   UNL d   1      30.808  15.844 -23.606  0.00  0.00     0.000 C 
ATOM     20  C   UNL d   1      31.219  17.971 -23.846  0.00  0.00     0.019 A 
ENDBRANCH   2  14
TORSDOF 4
ENDMDL
MODEL 5
REMARK VINA RESULT:      -0.4      1.037      4.109
REMARK  4 active torsions:
REMARK  status: ('A' for Active; 'I' for Inactive)
REMARK    1  A    between atoms: C_2  and  C_1 
REMARK       I    between atoms: N_3  and  C_1 
REMARK       I    between atoms: N_4  and  C_2 
REMARK    2  A    between atoms: C_8  and  N_3 
REMARK    3  A    between atoms: C_9  and  N_4 
REMARK    4  A    between atoms: C_10  and  C_9 
ROOT
ATOM      1  C   UNL d   1      32.253  16.855 -24.651  0.00  0.00     0.337 C 
ATOM      2  N   UNL d   1      32.963  17.033 -24.270  0.00  0.00    -0.204 NA
ATOM      3  O   UNL d   1      32.186  16.165 -25.097  0.00  0.00    -0.260 OA
ENDROOT
BRANCH   1   4
ATOM      4  C   UNL d   1      31.613  17.367 -24.586  0.00  0.00     0.337 C 
ATOM      5  N   UNL d   1      30.887  17.090 -24.298  0.00  0.00    -0.201 NA
ATOM      6  O   UNL d   1      31.692  18.158 -24.806  0.00  0.00    -0.260 OA
BRANCH   5   7
ATOM      7  C   UNL d   1      30.808  16.299 -24.077  0.00  0.00     0.121 C 
BRANCH   7   8
ATOM      8  C   UNL d   1      30.099  16.018 -23.794  0.00  0.00     0.101 A 
ATOM      9  N   UNL d   1      29.436  16.018 -24.287  0.00  0.00    -0.242 NA
ATOM     10  C   UNL d   1      28.713  15.734 -24.006  0.00  0.00     0.099 A 
ATOM     11  C   UNL d   1      28.654  15.452 -23.238  0.00  0.00     0.021 A 
ATOM     12  C   UNL d   1      29.316  15.453 -22.746  0.00  0.00     0.003 A 
ATOM     13  C   UNL d   1      30.039  15.736 -23.026  0.00  0.00     0.021 A 
ENDBRANCH   7   8
ENDBRANCH   5   7
ENDBRANCH   1   4
BRANCH   2  14
ATOM     14  C   UNL d   1      33.030  17.724 -23.824  0.00  0.00     0.085 A 
ATOM     15  C   UNL d   1      32.961  17.693 -23.002  0.00  0.00     0.019 A 
ATOM     16  C   UNL d   1      33.028  18.383 -22.556  0.00  0.00     0.002 A 
ATOM     17  C   UNL d   1      33.164  19.105 -22.932  0.00  0.00     0.000 A 
ATOM     18  C   UNL d   1      33.231  19.132 -23.746  0.00  0.00     0.002 A 
ATOM     19  C   UNL d   1      33.231  19.796 -22.486  0.00  0.00     0.000 C 
ATOM     20  C   UNL d   1      33.164  18.441 -24.192  0.00  0.00     0.019 A 
ENDBRANCH   2  14
TORSDOF 4
ENDMDL
