MODEL 1
REMARK VINA RESULT:      23.7      0.000      0.000
REMARK  2 active torsions:
REMARK  status: ('A' for Active; 'I' for Inactive)
REMARK    1  A    between atoms: C_2  and  C_1 
REMARK    2  A    between atoms: C_6  and  C_2 
ROOT
ATOM      1  C   UNL d   1      58.007  49.616  50.157  0.00  0.00     0.059 A 
ATOM      2  C   UNL d   1      57.347  49.498  49.690  0.00  0.00     0.106 A 
ATOM      3  C   UNL d   1      57.940  49.686  50.967  0.00  0.00     0.011 A 
ATOM      4  C   UNL d   1      56.611  49.450  50.028  0.00  0.00     0.021 A 
ATOM      5  C   UNL d   1      57.177  49.637  51.327  0.00  0.00     0.035 A 
ATOM      6  N   UNL d   1      57.439  49.430  48.873  0.00  0.00    -0.148 N 
ATOM      7  C   UNL d   1      56.533  49.520  50.847  0.00  0.00     0.008 A 
ATOM      8 BR   UNL d   1      57.101  49.706  52.135  0.00  0.00    -0.049 Br
ENDROOT
BRANCH   1   9
ATOM      9  C   UNL d   1      58.760  49.665  49.806  0.00  0.00     0.197 C 
ATOM     10  O   UNL d   1      58.886  49.708  48.991  0.00  0.00    -0.286 OA
BRANCH   9  11
ATOM     11  C   UNL d   1      59.410  49.671  50.303  0.00  0.00     0.039 A 
ATOM     12  C   UNL d   1      59.313  49.659  51.113  0.00  0.00     0.003 A 
ATOM     13  C   UNL d   1      59.972  49.665  51.620  0.00  0.00     0.000 A 
ATOM     14  C   UNL d   1      60.743  49.684  51.290  0.00  0.00     0.000 A 
ATOM     15  C   UNL d   1      60.843  49.696  50.466  0.00  0.00     0.000 A 
ATOM     16  C   UNL d   1      60.161  49.689  49.980  0.00  0.00     0.003 A 
ENDBRANCH   9  11
ENDBRANCH   1   9
TORSDOF 2
ENDMDL
