MODEL 1
REMARK VINA RESULT:      89.1      0.000      0.000
REMARK  6 active torsions:
REMARK  status: ('A' for Active; 'I' for Inactive)
REMARK       I    between atoms: C_3  and  N_1 
REMARK    1  A    between atoms: C_8  and  C_3 
REMARK    2  A    between atoms: S_4  and  N_9 
REMARK    3  A    between atoms: C_24  and  S_4 
REMARK    4  A    between atoms: C_10  and  C_5 
REMARK    5  A    between atoms: C_11  and  C_6 
REMARK    6  A    between atoms: N_9  and  C_23 
ROOT
ATOM      1  N   UNL d   1     -47.978  30.153  35.046  0.00  0.00    -0.193 N 
ATOM      2  N   UNL d   1     -48.277  29.367  35.031  0.00  0.00    -0.163 NA
ATOM      3  C   UNL d   1     -47.486  30.469  35.627  0.00  0.00     0.303 C 
ATOM      4  C   UNL d   1     -48.251  30.549  34.403  0.00  0.00     0.088 A 
ATOM      5  C   UNL d   1     -48.741  29.298  34.356  0.00  0.00     0.103 A 
ATOM      6  C   UNL d   1     -48.731  30.029  33.957  0.00  0.00     0.040 A 
ATOM      7  O   UNL d   1     -47.234  31.246  35.574  0.00  0.00    -0.263 OA
ENDROOT
BRANCH   5   8
ATOM      8  C   UNL d   1     -49.153  28.641  34.093  0.00  0.00     0.019 A 
ATOM      9  C   UNL d   1     -48.867  27.885  34.273  0.00  0.00     0.003 A 
ATOM     10  C   UNL d   1     -49.271  27.227  34.015  0.00  0.00     0.020 A 
ATOM     11  C   UNL d   1     -49.967  27.311  33.574  0.00  0.00     0.094 A 
ATOM     12  C   UNL d   1     -50.251  28.064  33.396  0.00  0.00     0.020 A 
ATOM     13  C   UNL d   1     -49.844  28.731  33.656  0.00  0.00     0.003 A 
BRANCH  11  14
ATOM     14  N   UNL d   1     -50.387  26.647  33.306  0.00  0.00    -0.158 NA
BRANCH  14  15
ATOM     15  S   UNL d   1     -51.130  26.492  33.600  0.00  0.00     0.286 S 
ATOM     16  O   UNL d   1     -51.402  27.221  33.306  0.00  0.00    -0.198 OA
ATOM     17  O   UNL d   1     -51.894  26.323  33.906  0.00  0.00    -0.198 OA
BRANCH  15  18
ATOM     18  C   UNL d   1     -50.861  25.762  33.895  0.00  0.00     0.117 C 
ATOM     19  C   UNL d   1     -51.037  25.064  33.503  0.00  0.00     0.014 C 
ENDBRANCH  15  18
ENDBRANCH  14  15
ENDBRANCH  11  14
ENDBRANCH   5   8
BRANCH   4  20
ATOM     20  C   UNL d   1     -48.108  31.316  34.190  0.00  0.00     0.018 A 
ATOM     21  C   UNL d   1     -48.715  31.874  34.173  0.00  0.00     0.002 A 
ATOM     22  C   UNL d   1     -48.569  32.661  33.955  0.00  0.00     0.000 A 
ATOM     23  C   UNL d   1     -47.793  32.886  33.750  0.00  0.00     0.000 A 
ATOM     24  C   UNL d   1     -47.181  32.327  33.765  0.00  0.00     0.000 A 
ATOM     25  C   UNL d   1     -47.633  33.664  33.531  0.00  0.00     0.000 C 
ATOM     26  C   UNL d   1     -47.335  31.547  33.983  0.00  0.00     0.002 A 
ENDBRANCH   4  20
BRANCH   3  27
ATOM     27  C   UNL d   1     -47.248  29.995  36.260  0.00  0.00     0.158 A 
ATOM     28  O   UNL d   1     -46.532  29.587  36.308  0.00  0.00    -0.300 OA
ATOM     29  C   UNL d   1     -46.521  29.188  37.026  0.00  0.00     0.123 A 
ATOM     30  C   UNL d   1     -47.231  29.350  37.421  0.00  0.00     0.029 A 
ATOM     31  C   UNL d   1     -47.675  29.848  36.943  0.00  0.00     0.032 A 
ENDBRANCH   3  27
TORSDOF 6
ENDMDL
