MODEL 1
REMARK VINA RESULT:      50.7      0.000      0.000
REMARK  2 active torsions:
REMARK  status: ('A' for Active; 'I' for Inactive)
REMARK    1  A    between atoms: C_6  and  C_1 
REMARK    2  A    between atoms: C_8  and  N_3 
REMARK       I    between atoms: N_7  and  C_6 
ROOT
ATOM      1  C   UNL d   1     -51.442  25.443  33.452  0.00  0.00     0.124 A 
ATOM      2  C   UNL d   1     -50.702  25.772  33.670  0.00  0.00     0.181 A 
ATOM      3  N   UNL d   1     -50.786  26.607  33.663  0.00  0.00    -0.276 N 
ATOM      4  C   UNL d   1     -51.560  26.791  33.446  0.00  0.00     0.152 A 
ATOM      5  S   UNL d   1     -51.980  26.077  33.312  0.00  0.00    -0.051 SA
ATOM      6  S   UNL d   1     -51.873  27.543  33.373  0.00  0.00    -0.052 SA
ATOM      7  N   UNL d   1     -50.068  25.275  33.841  0.00  0.00    -0.128 N 
ENDROOT
BRANCH   1   8
ATOM      8  C   UNL d   1     -51.550  24.631  33.404  0.00  0.00     0.274 C 
ATOM      9  N   UNL d   1     -52.313  24.324  33.379  0.00  0.00    -0.267 N 
ATOM     10  C   UNL d   1     -52.982  24.829  33.402  0.00  0.00     0.110 A 
ATOM     11  C   UNL d   1     -52.433  23.495  33.331  0.00  0.00     0.110 A 
ATOM     12  C   UNL d   1     -53.751  24.507  33.376  0.00  0.00     0.142 A 
ATOM     13  O   UNL d   1     -53.853  23.690  33.329  0.00  0.00    -0.300 OA
ATOM     14  C   UNL d   1     -53.196  23.188  33.306  0.00  0.00     0.142 A 
ATOM     15  O   UNL d   1     -50.905  24.129  33.381  0.00  0.00    -0.266 OA
ENDBRANCH   1   8
BRANCH   3  16
ATOM     16  C   UNL d   1     -50.178  27.150  33.848  0.00  0.00     0.067 A 
ATOM     17  C   UNL d   1     -49.754  27.072  34.544  0.00  0.00     0.018 A 
ATOM     18  C   UNL d   1     -49.146  27.623  34.720  0.00  0.00     0.002 A 
ATOM     19  C   UNL d   1     -48.982  28.229  34.201  0.00  0.00     0.000 A 
ATOM     20  C   UNL d   1     -49.415  28.304  33.496  0.00  0.00     0.002 A 
ATOM     21  C   UNL d   1     -48.383  28.769  34.378  0.00  0.00     0.000 C 
ATOM     22  C   UNL d   1     -50.013  27.767  33.317  0.00  0.00     0.018 A 
ENDBRANCH   3  16
TORSDOF 2
ENDMDL
