MODEL 1
REMARK VINA RESULT:      -8.6      0.000      0.000
REMARK  7 active torsions:
REMARK  status: ('A' for Active; 'I' for Inactive)
REMARK    1  A    between atoms: C_2  and  S_1 
REMARK    2  A    between atoms: N_3  and  S_1 
REMARK    3  A    between atoms: C_11  and  N_3 
REMARK    4  A    between atoms: C_4  and  C_7 
REMARK       I    between atoms: N_12  and  C_4 
REMARK    5  A    between atoms: C_22  and  N_12 
REMARK    6  A    between atoms: O_20  and  C_24 
REMARK    7  A    between atoms: C_24  and  C_22 
ROOT
ATOM      1  C   UNL d   1      50.248  34.378  52.081  0.00  0.00     0.058 A 
ATOM      2  C   UNL d   1      51.670  34.214  52.895  0.00  0.00     0.094 A 
ATOM      3  C   UNL d   1      50.246  34.284  52.901  0.00  0.00     0.006 A 
ATOM      4  C   UNL d   1      50.963  34.390  51.668  0.00  0.00     0.006 A 
ATOM      5  C   UNL d   1      50.955  34.203  53.307  0.00  0.00     0.020 A 
ATOM      6  C   UNL d   1      51.674  34.308  52.074  0.00  0.00     0.020 A 
ENDROOT
BRANCH   2   7
ATOM      7  N   UNL d   1      52.380  34.133  53.301  0.00  0.00    -0.158 NA
BRANCH   7   8
ATOM      8  S   UNL d   1      52.713  33.384  53.399  0.00  0.00     0.285 S 
ATOM      9  O   UNL d   1      52.260  33.272  54.079  0.00  0.00    -0.198 OA
ATOM     10  O   UNL d   1      53.164  33.501  52.719  0.00  0.00    -0.198 OA
BRANCH   8  11
ATOM     11  C   UNL d   1      53.051  32.640  53.490  0.00  0.00     0.105 A 
ATOM     12  C   UNL d   1      53.730  32.541  53.943  0.00  0.00     0.012 A 
ATOM     13  C   UNL d   1      54.062  31.792  54.029  0.00  0.00     0.001 A 
ATOM     14  C   UNL d   1      54.073  33.207  54.308  0.00  0.00     0.001 C 
ATOM     15  C   UNL d   1      53.717  31.142  53.666  0.00  0.00     0.000 A 
ATOM     16  C   UNL d   1      53.035  31.237  53.210  0.00  0.00     0.001 A 
ATOM     17  C   UNL d   1      52.698  31.982  53.120  0.00  0.00     0.013 A 
ATOM     18  C   UNL d   1      52.687  30.572  52.842  0.00  0.00     0.000 C 
ENDBRANCH   8  11
ENDBRANCH   7   8
ENDBRANCH   2   7
BRANCH   1  19
ATOM     19  C   UNL d   1      49.531  34.462  51.664  0.00  0.00     0.279 C 
ATOM     20  O   UNL d   1      49.412  34.055  50.956  0.00  0.00    -0.265 OA
ATOM     21  N   UNL d   1      48.945  34.953  51.963  0.00  0.00    -0.204 NA
BRANCH  21  22
ATOM     22  C   UNL d   1      48.235  35.037  51.552  0.00  0.00     0.128 C 
BRANCH  22  23
ATOM     23  C   UNL d   1      47.676  35.590  51.801  0.00  0.00     0.137 C 
BRANCH  23  24
ATOM     24  O   UNL d   1      46.886  35.545  51.517  0.00  0.00    -0.325 OA
ATOM     25  C   UNL d   1      46.335  36.107  51.750  0.00  0.00     0.182 C 
ENDBRANCH  23  24
ENDBRANCH  22  23
ENDBRANCH  21  22
ENDBRANCH   1  19
TORSDOF 7
ENDMDL
MODEL 2
REMARK VINA RESULT:      -8.5      1.303      1.964
REMARK  7 active torsions:
REMARK  status: ('A' for Active; 'I' for Inactive)
REMARK    1  A    between atoms: C_2  and  S_1 
REMARK    2  A    between atoms: N_3  and  S_1 
REMARK    3  A    between atoms: C_11  and  N_3 
REMARK    4  A    between atoms: C_4  and  C_7 
REMARK       I    between atoms: N_12  and  C_4 
REMARK    5  A    between atoms: C_22  and  N_12 
REMARK    6  A    between atoms: O_20  and  C_24 
REMARK    7  A    between atoms: C_24  and  C_22 
ROOT
ATOM      1  C   UNL d   1      50.393  34.211  52.553  0.00  0.00     0.058 A 
ATOM      2  C   UNL d   1      51.789  33.352  52.694  0.00  0.00     0.094 A 
ATOM      3  C   UNL d   1      51.069  34.454  52.147  0.00  0.00     0.006 A 
ATOM      4  C   UNL d   1      50.415  33.538  53.030  0.00  0.00     0.006 A 
ATOM      5  C   UNL d   1      51.766  34.025  52.217  0.00  0.00     0.020 A 
ATOM      6  C   UNL d   1      51.113  33.108  53.100  0.00  0.00     0.020 A 
ENDROOT
BRANCH   2   7
ATOM      7  N   UNL d   1      52.487  32.922  52.764  0.00  0.00    -0.158 NA
BRANCH   7   8
ATOM      8  S   UNL d   1      53.026  33.109  53.360  0.00  0.00     0.285 S 
ATOM      9  O   UNL d   1      52.659  32.567  53.862  0.00  0.00    -0.198 OA
ATOM     10  O   UNL d   1      53.390  33.649  52.855  0.00  0.00    -0.198 OA
BRANCH   8  11
ATOM     11  C   UNL d   1      53.567  33.300  53.949  0.00  0.00     0.105 A 
ATOM     12  C   UNL d   1      54.255  32.859  54.044  0.00  0.00     0.012 A 
ATOM     13  C   UNL d   1      54.792  33.057  54.637  0.00  0.00     0.001 A 
ATOM     14  C   UNL d   1      54.395  32.214  53.536  0.00  0.00     0.001 C 
ATOM     15  C   UNL d   1      54.645  33.694  55.134  0.00  0.00     0.000 A 
ATOM     16  C   UNL d   1      53.956  34.139  55.041  0.00  0.00     0.001 A 
ATOM     17  C   UNL d   1      53.415  33.947  54.451  0.00  0.00     0.013 A 
ATOM     18  C   UNL d   1      53.810  34.786  55.549  0.00  0.00     0.000 C 
ENDBRANCH   8  11
ENDBRANCH   7   8
ENDBRANCH   2   7
BRANCH   1  19
ATOM     19  C   UNL d   1      49.682  34.642  52.485  0.00  0.00     0.279 C 
ATOM     20  O   UNL d   1      49.204  34.556  51.819  0.00  0.00    -0.265 OA
ATOM     21  N   UNL d   1      49.463  35.154  53.089  0.00  0.00    -0.204 NA
BRANCH  21  22
ATOM     22  C   UNL d   1      48.760  35.582  53.025  0.00  0.00     0.128 C 
BRANCH  22  23
ATOM     23  C   UNL d   1      48.447  35.966  53.685  0.00  0.00     0.137 C 
BRANCH  23  24
ATOM     24  O   UNL d   1      47.906  36.602  53.583  0.00  0.00    -0.325 OA
ATOM     25  C   UNL d   1      47.293  36.706  54.119  0.00  0.00     0.182 C 
ENDBRANCH  23  24
ENDBRANCH  22  23
ENDBRANCH  21  22
ENDBRANCH   1  19
TORSDOF 7
ENDMDL
MODEL 3
REMARK VINA RESULT:      -6.6      1.120      1.978
REMARK  7 active torsions:
REMARK  status: ('A' for Active; 'I' for Inactive)
REMARK    1  A    between atoms: C_2  and  S_1 
REMARK    2  A    between atoms: N_3  and  S_1 
REMARK    3  A    between atoms: C_11  and  N_3 
REMARK    4  A    between atoms: C_4  and  C_7 
REMARK       I    between atoms: N_12  and  C_4 
REMARK    5  A    between atoms: C_22  and  N_12 
REMARK    6  A    between atoms: O_20  and  C_24 
REMARK    7  A    between atoms: C_24  and  C_22 
ROOT
ATOM      1  C   UNL d   1      49.801  34.418  52.083  0.00  0.00     0.058 A 
ATOM      2  C   UNL d   1      51.126  33.611  52.634  0.00  0.00     0.094 A 
ATOM      3  C   UNL d   1      49.777  34.036  52.814  0.00  0.00     0.006 A 
ATOM      4  C   UNL d   1      50.489  34.396  51.627  0.00  0.00     0.006 A 
ATOM      5  C   UNL d   1      50.438  33.633  53.089  0.00  0.00     0.020 A 
ATOM      6  C   UNL d   1      51.151  33.992  51.902  0.00  0.00     0.020 A 
ENDROOT
BRANCH   2   7
ATOM      7  N   UNL d   1      51.787  33.208  52.909  0.00  0.00    -0.158 NA
BRANCH   7   8
ATOM      8  S   UNL d   1      52.311  33.581  53.425  0.00  0.00     0.285 S 
ATOM      9  O   UNL d   1      52.819  33.740  52.795  0.00  0.00    -0.198 OA
ATOM     10  O   UNL d   1      51.801  33.420  54.052  0.00  0.00    -0.198 OA
BRANCH   8  11
ATOM     11  C   UNL d   1      52.828  33.951  53.946  0.00  0.00     0.105 A 
ATOM     12  C   UNL d   1      53.401  33.517  54.346  0.00  0.00     0.012 A 
ATOM     13  C   UNL d   1      53.916  33.896  54.866  0.00  0.00     0.001 A 
ATOM     14  C   UNL d   1      53.451  32.696  54.215  0.00  0.00     0.001 C 
ATOM     15  C   UNL d   1      53.859  34.706  54.989  0.00  0.00     0.000 A 
ATOM     16  C   UNL d   1      53.285  35.145  54.589  0.00  0.00     0.001 A 
ATOM     17  C   UNL d   1      52.768  34.774  54.068  0.00  0.00     0.013 A 
ATOM     18  C   UNL d   1      53.231  35.969  54.717  0.00  0.00     0.000 C 
ENDBRANCH   8  11
ENDBRANCH   7   8
ENDBRANCH   2   7
BRANCH   1  19
ATOM     19  C   UNL d   1      49.133  34.829  51.799  0.00  0.00     0.279 C 
ATOM     20  O   UNL d   1      48.936  34.800  50.999  0.00  0.00    -0.265 OA
ATOM     21  N   UNL d   1      48.673  35.263  52.324  0.00  0.00    -0.204 NA
BRANCH  21  22
ATOM     22  C   UNL d   1      48.012  35.670  52.045  0.00  0.00     0.128 C 
BRANCH  22  23
ATOM     23  C   UNL d   1      47.560  36.127  52.561  0.00  0.00     0.137 C 
BRANCH  23  24
ATOM     24  O   UNL d   1      46.723  36.047  52.568  0.00  0.00    -0.325 OA
ATOM     25  C   UNL d   1      46.250  36.709  52.677  0.00  0.00     0.182 C 
ENDBRANCH  23  24
ENDBRANCH  22  23
ENDBRANCH  21  22
ENDBRANCH   1  19
TORSDOF 7
ENDMDL
MODEL 4
REMARK VINA RESULT:      -5.7      2.699      5.321
REMARK  7 active torsions:
REMARK  status: ('A' for Active; 'I' for Inactive)
REMARK    1  A    between atoms: C_2  and  S_1 
REMARK    2  A    between atoms: N_3  and  S_1 
REMARK    3  A    between atoms: C_11  and  N_3 
REMARK    4  A    between atoms: C_4  and  C_7 
REMARK       I    between atoms: N_12  and  C_4 
REMARK    5  A    between atoms: C_22  and  N_12 
REMARK    6  A    between atoms: O_20  and  C_24 
REMARK    7  A    between atoms: C_24  and  C_22 
ROOT
ATOM      1  C   UNL d   1      52.782  30.496  53.231  0.00  0.00     0.058 A 
ATOM      2  C   UNL d   1      52.657  32.090  52.842  0.00  0.00     0.094 A 
ATOM      3  C   UNL d   1      52.043  30.862  53.227  0.00  0.00     0.006 A 
ATOM      4  C   UNL d   1      53.460  30.927  53.040  0.00  0.00     0.006 A 
ATOM      5  C   UNL d   1      51.980  31.658  53.033  0.00  0.00     0.020 A 
ATOM      6  C   UNL d   1      53.397  31.725  52.845  0.00  0.00     0.020 A 
ENDROOT
BRANCH   2   7
ATOM      7  N   UNL d   1      52.594  32.886  52.648  0.00  0.00    -0.158 NA
BRANCH   7   8
ATOM      8  S   UNL d   1      52.794  33.462  53.204  0.00  0.00     0.285 S 
ATOM      9  O   UNL d   1      52.049  33.388  53.549  0.00  0.00    -0.198 OA
ATOM     10  O   UNL d   1      53.538  33.534  52.856  0.00  0.00    -0.198 OA
BRANCH   8  11
ATOM     11  C   UNL d   1      53.001  34.037  53.755  0.00  0.00     0.105 A 
ATOM     12  C   UNL d   1      52.712  34.804  53.687  0.00  0.00     0.012 A 
ATOM     13  C   UNL d   1      52.925  35.374  54.243  0.00  0.00     0.001 A 
ATOM     14  C   UNL d   1      52.207  34.991  53.052  0.00  0.00     0.001 C 
ATOM     15  C   UNL d   1      53.423  35.180  54.866  0.00  0.00     0.000 A 
ATOM     16  C   UNL d   1      53.715  34.411  54.937  0.00  0.00     0.001 A 
ATOM     17  C   UNL d   1      53.507  33.837  54.386  0.00  0.00     0.013 A 
ATOM     18  C   UNL d   1      54.222  34.219  55.572  0.00  0.00     0.000 C 
ENDBRANCH   8  11
ENDBRANCH   7   8
ENDBRANCH   2   7
BRANCH   1  19
ATOM     19  C   UNL d   1      52.852  29.688  53.427  0.00  0.00     0.279 C 
ATOM     20  O   UNL d   1      52.573  29.109  52.911  0.00  0.00    -0.265 OA
ATOM     21  N   UNL d   1      53.202  29.475  54.139  0.00  0.00    -0.204 NA
BRANCH  21  22
ATOM     22  C   UNL d   1      53.272  28.677  54.335  0.00  0.00     0.128 C 
BRANCH  22  23
ATOM     23  C   UNL d   1      53.612  28.455  55.053  0.00  0.00     0.137 C 
BRANCH  23  24
ATOM     24  O   UNL d   1      53.133  28.389  55.741  0.00  0.00    -0.325 OA
ATOM     25  C   UNL d   1      53.394  28.705  56.452  0.00  0.00     0.182 C 
ENDBRANCH  23  24
ENDBRANCH  22  23
ENDBRANCH  21  22
ENDBRANCH   1  19
TORSDOF 7
ENDMDL
