MODEL 1
REMARK VINA RESULT:       2.4      0.000      0.000
REMARK  7 active torsions:
REMARK  status: ('A' for Active; 'I' for Inactive)
REMARK    1  A    between atoms: N_15  and  C_4 
REMARK    2  A    between atoms: C_17  and  N_5 
REMARK    3  A    between atoms: C_19  and  N_10 
REMARK    4  A    between atoms: C_11  and  S_16 
REMARK    5  A    between atoms: S_16  and  C_28 
REMARK    6  A    between atoms: C_27  and  C_17 
REMARK    7  A    between atoms: C_28  and  C_27 
ROOT
ATOM      1  C   UNL d   1      32.788  21.663 -20.702  0.00  0.00     0.191 A 
ATOM      2  C   UNL d   1      32.920  20.964 -21.122  0.00  0.00     0.174 A 
ATOM      3  N   UNL d   1      32.747  22.301 -21.234  0.00  0.00    -0.042 NA
ATOM      4  C   UNL d   1      32.858  21.976 -21.997  0.00  0.00     0.722 A 
ATOM      5  N   UNL d   1      32.963  21.168 -21.940  0.00  0.00    -0.136 N 
ATOM      6  N   UNL d   1      32.717  21.645 -19.856  0.00  0.00    -0.239 N 
ATOM      7  C   UNL d   1      32.786  20.887 -19.459  0.00  0.00     0.358 A 
ATOM      8  N   UNL d   1      32.918  20.209 -19.911  0.00  0.00    -0.152 NA
ATOM      9  C   UNL d   1      32.985  20.253 -20.755  0.00  0.00     0.303 A 
ATOM     10  O   UNL d   1      32.721  20.832 -18.622  0.00  0.00    -0.244 OA
ATOM     11  O   UNL d   1      33.120  19.544 -21.182  0.00  0.00    -0.263 OA
ATOM     12  C   UNL d   1      32.584  22.338 -19.424  0.00  0.00     0.105 C 
ENDROOT
BRANCH   5  13
ATOM     13  C   UNL d   1      33.078  20.778 -22.645  0.00  0.00     0.072 C 
BRANCH  13  14
ATOM     14  C   UNL d   1      33.061  19.943 -22.650  0.00  0.00     0.052 C 
ATOM     15  C   UNL d   1      32.962  20.163 -23.439  0.00  0.00     0.007 C 
BRANCH  14  16
ATOM     16  C   UNL d   1      32.960  19.536 -23.360  0.00  0.00     0.071 C 
BRANCH  16  17
ATOM     17  S   UNL d   1      32.710  18.761 -23.366  0.00  0.00    -0.073 SA
BRANCH  17  18
ATOM     18  C   UNL d   1      32.269  18.463 -23.996  0.00  0.00     0.215 A 
ATOM     19  N   UNL d   1      32.139  17.668 -24.165  0.00  0.00    -0.186 N 
ATOM     20  N   UNL d   1      31.672  17.618 -24.838  0.00  0.00    -0.038 NA
ATOM     21  N   UNL d   1      31.510  18.388 -25.089  0.00  0.00    -0.022 NA
ATOM     22  N   UNL d   1      31.879  18.909 -24.567  0.00  0.00    -0.101 NA
BRANCH  19  23
ATOM     23  C   UNL d   1      32.429  17.029 -23.732  0.00  0.00     0.087 A 
ATOM     24  C   UNL d   1      32.947  16.498 -24.090  0.00  0.00     0.019 A 
ATOM     25  C   UNL d   1      33.237  15.859 -23.657  0.00  0.00     0.002 A 
ATOM     26  C   UNL d   1      33.010  15.753 -22.870  0.00  0.00     0.000 A 
ATOM     27  C   UNL d   1      32.489  16.293 -22.518  0.00  0.00     0.002 A 
ATOM     28  C   UNL d   1      32.198  16.932 -22.951  0.00  0.00     0.019 A 
ENDBRANCH  19  23
ENDBRANCH  17  18
ENDBRANCH  16  17
ENDBRANCH  14  16
ENDBRANCH  13  14
ENDBRANCH   5  13
BRANCH   4  29
ATOM     29  N   UNL d   1      32.861  22.403 -22.704  0.00  0.00    -0.136 N 
ATOM     30  C   UNL d   1      32.508  23.153 -22.733  0.00  0.00     0.117 A 
ATOM     31  C   UNL d   1      32.517  23.571 -23.446  0.00  0.00     0.100 A 
ATOM     32  N   UNL d   1      32.872  23.249 -24.124  0.00  0.00    -0.299 N 
ATOM     33  C   UNL d   1      33.219  22.502 -24.079  0.00  0.00     0.100 A 
ATOM     34  C   UNL d   1      32.875  23.677 -24.832  0.00  0.00     0.100 C 
ATOM     35  C   UNL d   1      33.217  22.076 -23.376  0.00  0.00     0.117 A 
ENDBRANCH   4  29
TORSDOF 7
ENDMDL
MODEL 2
REMARK VINA RESULT:       3.6      1.717      3.370
REMARK  7 active torsions:
REMARK  status: ('A' for Active; 'I' for Inactive)
REMARK    1  A    between atoms: N_15  and  C_4 
REMARK    2  A    between atoms: C_17  and  N_5 
REMARK    3  A    between atoms: C_19  and  N_10 
REMARK    4  A    between atoms: C_11  and  S_16 
REMARK    5  A    between atoms: S_16  and  C_28 
REMARK    6  A    between atoms: C_27  and  C_17 
REMARK    7  A    between atoms: C_28  and  C_27 
ROOT
ATOM      1  C   UNL d   1      32.577  22.226 -23.383  0.00  0.00     0.191 A 
ATOM      2  C   UNL d   1      32.785  21.564 -23.832  0.00  0.00     0.174 A 
ATOM      3  N   UNL d   1      32.604  22.030 -22.575  0.00  0.00    -0.042 NA
ATOM      4  C   UNL d   1      32.836  21.227 -22.537  0.00  0.00     0.722 A 
ATOM      5  N   UNL d   1      32.948  20.936 -23.291  0.00  0.00    -0.136 N 
ATOM      6  N   UNL d   1      32.379  22.956 -23.767  0.00  0.00    -0.239 N 
ATOM      7  C   UNL d   1      32.402  22.984 -24.625  0.00  0.00     0.358 A 
ATOM      8  N   UNL d   1      32.615  22.302 -25.041  0.00  0.00    -0.152 NA
ATOM      9  C   UNL d   1      32.808  21.585 -24.634  0.00  0.00     0.303 A 
ATOM     10  O   UNL d   1      32.212  23.690 -25.039  0.00  0.00    -0.244 OA
ATOM     11  O   UNL d   1      33.020  20.913 -25.090  0.00  0.00    -0.263 OA
ATOM     12  C   UNL d   1      32.169  23.625 -23.329  0.00  0.00     0.105 C 
ENDROOT
BRANCH   5  13
ATOM     13  C   UNL d   1      33.176  20.156 -23.337  0.00  0.00     0.072 C 
BRANCH  13  14
ATOM     14  C   UNL d   1      32.825  19.668 -23.918  0.00  0.00     0.052 C 
ATOM     15  C   UNL d   1      33.235  19.150 -23.424  0.00  0.00     0.007 C 
BRANCH  14  16
ATOM     16  C   UNL d   1      32.939  18.851 -23.895  0.00  0.00     0.071 C 
BRANCH  16  17
ATOM     17  S   UNL d   1      32.324  18.339 -24.046  0.00  0.00    -0.073 SA
BRANCH  17  18
ATOM     18  C   UNL d   1      32.461  17.532 -24.145  0.00  0.00     0.215 A 
ATOM     19  N   UNL d   1      31.885  16.948 -24.228  0.00  0.00    -0.186 N 
ATOM     20  N   UNL d   1      32.260  16.224 -24.312  0.00  0.00    -0.038 NA
ATOM     21  N   UNL d   1      33.074  16.357 -24.282  0.00  0.00    -0.022 NA
ATOM     22  N   UNL d   1      33.197  17.166 -24.179  0.00  0.00    -0.101 NA
BRANCH  19  23
ATOM     23  C   UNL d   1      31.069  17.072 -24.226  0.00  0.00     0.087 A 
ATOM     24  C   UNL d   1      30.579  16.530 -23.847  0.00  0.00     0.019 A 
ATOM     25  C   UNL d   1      29.763  16.653 -23.845  0.00  0.00     0.002 A 
ATOM     26  C   UNL d   1      29.442  17.315 -24.220  0.00  0.00     0.000 A 
ATOM     27  C   UNL d   1      29.944  17.855 -24.599  0.00  0.00     0.002 A 
ATOM     28  C   UNL d   1      30.760  17.732 -24.601  0.00  0.00     0.019 A 
ENDBRANCH  19  23
ENDBRANCH  17  18
ENDBRANCH  16  17
ENDBRANCH  14  16
ENDBRANCH  13  14
ENDBRANCH   5  13
BRANCH   4  29
ATOM     29  N   UNL d   1      32.938  20.790 -21.843  0.00  0.00    -0.136 N 
ATOM     30  C   UNL d   1      33.118  21.180 -21.134  0.00  0.00     0.117 A 
ATOM     31  C   UNL d   1      33.217  20.733 -20.446  0.00  0.00     0.100 A 
ATOM     32  N   UNL d   1      33.139  19.906 -20.461  0.00  0.00    -0.299 N 
ATOM     33  C   UNL d   1      32.960  19.532 -21.174  0.00  0.00     0.100 A 
ATOM     34  C   UNL d   1      33.241  19.468 -19.766  0.00  0.00     0.100 C 
ATOM     35  C   UNL d   1      32.858  19.966 -21.865  0.00  0.00     0.117 A 
ENDBRANCH   4  29
TORSDOF 7
ENDMDL
