MODEL 1
REMARK VINA RESULT:      78.8      0.000      0.000
REMARK  6 active torsions:
REMARK  status: ('A' for Active; 'I' for Inactive)
REMARK    1  A    between atoms: C_5  and  N_1 
REMARK    2  A    between atoms: N_2  and  C_5 
REMARK    3  A    between atoms: C_12  and  C_9 
REMARK    4  A    between atoms: C_14  and  C_10 
REMARK    5  A    between atoms: O_29  and  C_20 
REMARK    6  A    between atoms: O_28  and  C_21 
ROOT
ATOM      1  N   UNL d   1      44.673 -16.296  37.403  0.00  0.00    -0.211 N 
ATOM      2  N   UNL d   1      44.556 -16.910  37.923  0.00  0.00    -0.164 NA
ATOM      3  C   UNL d   1      45.115 -16.832  38.527  0.00  0.00     0.103 A 
ATOM      4  C   UNL d   1      45.294 -15.843  37.678  0.00  0.00     0.086 A 
ATOM      5  C   UNL d   1      45.554 -16.192  38.376  0.00  0.00     0.040 A 
ENDROOT
BRANCH   1   6
ATOM      6  C   UNL d   1      44.291 -16.083  36.701  0.00  0.00     0.186 C 
BRANCH   6   7
ATOM      7  N   UNL d   1      43.494 -16.259  36.608  0.00  0.00    -0.254 N 
ATOM      8  C   UNL d   1      43.126 -16.996  36.510  0.00  0.00     0.305 A 
ATOM      9  C   UNL d   1      42.321 -16.925  36.437  0.00  0.00     0.253 A 
ATOM     10  O   UNL d   1      43.928 -17.121  36.579  0.00  0.00    -0.263 OA
ATOM     11  O   UNL d   1      41.774 -17.531  36.333  0.00  0.00    -0.281 OA
ATOM     12  C   UNL d   1      42.158 -16.110  36.488  0.00  0.00     0.060 A 
ATOM     13  C   UNL d   1      42.873 -15.704  36.593  0.00  0.00     0.072 A 
ATOM     14  C   UNL d   1      41.436 -15.687  36.452  0.00  0.00     0.005 A 
ATOM     15  C   UNL d   1      42.877 -14.869  36.662  0.00  0.00     0.018 A 
ATOM     16  C   UNL d   1      42.163 -14.462  36.625  0.00  0.00     0.002 A 
ATOM     17  C   UNL d   1      41.448 -14.869  36.521  0.00  0.00     0.000 A 
ENDBRANCH   6   7
ENDBRANCH   1   6
BRANCH   4  18
ATOM     18  C   UNL d   1      45.623 -15.169  37.354  0.00  0.00     0.018 A 
ATOM     19  C   UNL d   1      45.503 -14.424  37.689  0.00  0.00     0.004 A 
ATOM     20  C   UNL d   1      45.843 -13.737  37.353  0.00  0.00     0.024 A 
ATOM     21  C   UNL d   1      46.303 -13.801  36.679  0.00  0.00     0.094 A 
ATOM     22  C   UNL d   1      46.428 -14.547  36.336  0.00  0.00     0.024 A 
ATOM     23  C   UNL d   1      46.093 -15.225  36.667  0.00  0.00     0.004 A 
BRANCH  21  24
ATOM     24  O   UNL d   1      46.642 -13.125  36.341  0.00  0.00    -0.328 OA
ATOM     25  C   UNL d   1      46.366 -12.372  36.556  0.00  0.00     0.181 C 
ENDBRANCH  21  24
ENDBRANCH   4  18
BRANCH   3  26
ATOM     26  C   UNL d   1      45.187 -17.346  39.172  0.00  0.00     0.019 A 
ATOM     27  C   UNL d   1      45.947 -17.579  39.418  0.00  0.00     0.004 A 
ATOM     28  C   UNL d   1      46.036 -18.084  40.050  0.00  0.00     0.024 A 
ATOM     29  C   UNL d   1      45.368 -18.346  40.423  0.00  0.00     0.094 A 
ATOM     30  C   UNL d   1      44.627 -18.124  40.189  0.00  0.00     0.024 A 
ATOM     31  C   UNL d   1      44.539 -17.618  39.556  0.00  0.00     0.004 A 
BRANCH  29  32
ATOM     32  O   UNL d   1      45.458 -18.850  41.054  0.00  0.00    -0.328 OA
ATOM     33  C   UNL d   1      45.942 -18.636  41.696  0.00  0.00     0.181 C 
ENDBRANCH  29  32
ENDBRANCH   3  26
TORSDOF 6
ENDMDL
