MODEL 1
REMARK VINA RESULT:      -2.7      0.000      0.000
REMARK  1 active torsions:
REMARK  status: ('A' for Active; 'I' for Inactive)
REMARK    1  A    between atoms: C_9  and  C_3 
ROOT
ATOM      1  C   UNL d   1      29.897  16.638 -24.149  0.00  0.00     0.171 A 
ATOM      2  N   UNL d   1      30.311  17.213 -24.573  0.00  0.00    -0.212 N 
ATOM      3  C   UNL d   1      29.071  16.624 -24.170  0.00  0.00     0.121 A 
ATOM      4  N   UNL d   1      29.899  17.772 -25.018  0.00  0.00    -0.162 NA
ATOM      5  N   UNL d   1      30.305  16.079 -23.705  0.00  0.00    -0.226 NA
ATOM      6  C   UNL d   1      31.134  17.227 -24.552  0.00  0.00     0.086 A 
ATOM      7  C   UNL d   1      29.072  17.757 -25.039  0.00  0.00     0.130 A 
ATOM      8  C   UNL d   1      31.545  16.668 -24.107  0.00  0.00     0.038 A 
ATOM      9  C   UNL d   1      31.132  16.093 -23.684  0.00  0.00     0.085 A 
ATOM     10  C   UNL d   1      31.547  17.801 -24.976  0.00  0.00     0.021 C 
ATOM     11  C   UNL d   1      31.543  15.534 -23.239  0.00  0.00     0.021 C 
ENDROOT
BRANCH   3  12
ATOM     12  C   UNL d   1      28.490  16.146 -23.827  0.00  0.00     0.215 C 
ATOM     13  O   UNL d   1      28.155  16.365 -23.105  0.00  0.00    -0.644 OA
ATOM     14  O   UNL d   1      28.246  15.453 -24.204  0.00  0.00    -0.644 OA
ENDBRANCH   3  12
TORSDOF 1
ENDMDL
MODEL 2
REMARK VINA RESULT:      -2.7      1.717      3.062
REMARK  1 active torsions:
REMARK  status: ('A' for Active; 'I' for Inactive)
REMARK    1  A    between atoms: C_9  and  C_3 
ROOT
ATOM      1  C   UNL d   1      30.440  16.673 -24.014  0.00  0.00     0.171 A 
ATOM      2  N   UNL d   1      29.975  16.087 -23.667  0.00  0.00    -0.212 N 
ATOM      3  C   UNL d   1      31.263  16.651 -23.935  0.00  0.00     0.121 A 
ATOM      4  N   UNL d   1      30.333  15.479 -23.239  0.00  0.00    -0.162 NA
ATOM      5  N   UNL d   1      30.086  17.282 -24.441  0.00  0.00    -0.226 NA
ATOM      6  C   UNL d   1      29.156  16.109 -23.746  0.00  0.00     0.086 A 
ATOM      7  C   UNL d   1      31.156  15.456 -23.160  0.00  0.00     0.130 A 
ATOM      8  C   UNL d   1      28.799  16.718 -24.173  0.00  0.00     0.038 A 
ATOM      9  C   UNL d   1      29.264  17.304 -24.521  0.00  0.00     0.085 A 
ATOM     10  C   UNL d   1      28.692  15.523 -23.398  0.00  0.00     0.021 C 
ATOM     11  C   UNL d   1      28.906  17.913 -24.948  0.00  0.00     0.021 C 
ENDROOT
BRANCH   3  12
ATOM     12  C   UNL d   1      31.884  17.128 -24.199  0.00  0.00     0.215 C 
ATOM     13  O   UNL d   1      32.145  17.755 -23.729  0.00  0.00    -0.644 OA
ATOM     14  O   UNL d   1      32.242  16.979 -24.928  0.00  0.00    -0.644 OA
ENDBRANCH   3  12
TORSDOF 1
ENDMDL
MODEL 3
REMARK VINA RESULT:      -2.6      1.675      2.523
REMARK  1 active torsions:
REMARK  status: ('A' for Active; 'I' for Inactive)
REMARK    1  A    between atoms: C_9  and  C_3 
ROOT
ATOM      1  C   UNL d   1      30.572  16.602 -24.073  0.00  0.00     0.171 A 
ATOM      2  N   UNL d   1      30.081  17.137 -24.465  0.00  0.00    -0.212 N 
ATOM      3  C   UNL d   1      31.390  16.629 -24.190  0.00  0.00     0.121 A 
ATOM      4  N   UNL d   1      30.407  17.698 -24.973  0.00  0.00    -0.162 NA
ATOM      5  N   UNL d   1      30.249  16.041 -23.565  0.00  0.00    -0.226 NA
ATOM      6  C   UNL d   1      29.267  17.110 -24.349  0.00  0.00     0.086 A 
ATOM      7  C   UNL d   1      31.226  17.725 -25.090  0.00  0.00     0.130 A 
ATOM      8  C   UNL d   1      28.940  16.549 -23.840  0.00  0.00     0.038 A 
ATOM      9  C   UNL d   1      29.431  16.014 -23.448  0.00  0.00     0.085 A 
ATOM     10  C   UNL d   1      28.776  17.645 -24.740  0.00  0.00     0.021 C 
ATOM     11  C   UNL d   1      29.105  15.453 -22.940  0.00  0.00     0.021 C 
ENDROOT
BRANCH   3  12
ATOM     12  C   UNL d   1      32.032  16.196 -23.900  0.00  0.00     0.215 C 
ATOM     13  O   UNL d   1      32.273  15.511 -24.294  0.00  0.00    -0.644 OA
ATOM     14  O   UNL d   1      32.430  16.446 -23.221  0.00  0.00    -0.644 OA
ENDBRANCH   3  12
TORSDOF 1
ENDMDL
MODEL 4
REMARK VINA RESULT:      -2.2      2.276      2.925
REMARK  1 active torsions:
REMARK  status: ('A' for Active; 'I' for Inactive)
REMARK    1  A    between atoms: C_9  and  C_3 
ROOT
ATOM      1  C   UNL d   1      31.816  16.966 -23.960  0.00  0.00     0.171 A 
ATOM      2  N   UNL d   1      31.086  16.583 -23.941  0.00  0.00    -0.212 N 
ATOM      3  C   UNL d   1      31.881  17.717 -24.301  0.00  0.00     0.121 A 
ATOM      4  N   UNL d   1      30.421  16.949 -24.262  0.00  0.00    -0.162 NA
ATOM      5  N   UNL d   1      32.482  16.603 -23.640  0.00  0.00    -0.226 NA
ATOM      6  C   UNL d   1      31.021  15.836 -23.602  0.00  0.00     0.086 A 
ATOM      7  C   UNL d   1      30.485  17.700 -24.603  0.00  0.00     0.130 A 
ATOM      8  C   UNL d   1      31.687  15.470 -23.280  0.00  0.00     0.038 A 
ATOM      9  C   UNL d   1      32.417  15.853 -23.299  0.00  0.00     0.085 A 
ATOM     10  C   UNL d   1      30.291  15.453 -23.583  0.00  0.00     0.021 C 
ATOM     11  C   UNL d   1      33.082  15.486 -22.978  0.00  0.00     0.021 C 
ENDROOT
BRANCH   3  12
ATOM     12  C   UNL d   1      32.502  18.250 -24.415  0.00  0.00     0.215 C 
ATOM     13  O   UNL d   1      32.654  18.828 -23.845  0.00  0.00    -0.644 OA
ATOM     14  O   UNL d   1      32.968  18.206 -25.096  0.00  0.00    -0.644 OA
ENDBRANCH   3  12
TORSDOF 1
ENDMDL
MODEL 5
REMARK VINA RESULT:      -1.9      2.234      2.788
REMARK  1 active torsions:
REMARK  status: ('A' for Active; 'I' for Inactive)
REMARK    1  A    between atoms: C_9  and  C_3 
ROOT
ATOM      1  C   UNL d   1      32.166  17.482 -23.657  0.00  0.00     0.171 A 
ATOM      2  N   UNL d   1      32.212  17.996 -24.301  0.00  0.00    -0.212 N 
ATOM      3  C   UNL d   1      31.777  16.757 -23.734  0.00  0.00     0.121 A 
ATOM      4  N   UNL d   1      31.868  17.786 -25.021  0.00  0.00    -0.162 NA
ATOM      5  N   UNL d   1      32.508  17.689 -22.938  0.00  0.00    -0.226 NA
ATOM      6  C   UNL d   1      32.599  18.719 -24.225  0.00  0.00     0.086 A 
ATOM      7  C   UNL d   1      31.479  17.060 -25.097  0.00  0.00     0.130 A 
ATOM      8  C   UNL d   1      32.943  18.929 -23.505  0.00  0.00     0.038 A 
ATOM      9  C   UNL d   1      32.897  18.415 -22.862  0.00  0.00     0.085 A 
ATOM     10  C   UNL d   1      32.645  19.233 -24.868  0.00  0.00     0.021 C 
ATOM     11  C   UNL d   1      33.241  18.626 -22.142  0.00  0.00     0.021 C 
ENDROOT
BRANCH   3  12
ATOM     12  C   UNL d   1      31.627  16.123 -23.225  0.00  0.00     0.215 C 
ATOM     13  O   UNL d   1      30.909  16.087 -22.818  0.00  0.00    -0.644 OA
ATOM     14  O   UNL d   1      32.191  15.528 -23.125  0.00  0.00    -0.644 OA
ENDBRANCH   3  12
TORSDOF 1
ENDMDL
MODEL 6
REMARK VINA RESULT:      -1.9      2.046      2.992
REMARK  1 active torsions:
REMARK  status: ('A' for Active; 'I' for Inactive)
REMARK    1  A    between atoms: C_9  and  C_3 
ROOT
ATOM      1  C   UNL d   1      31.553  16.690 -24.162  0.00  0.00     0.171 A 
ATOM      2  N   UNL d   1      30.734  16.720 -24.258  0.00  0.00    -0.212 N 
ATOM      3  C   UNL d   1      31.902  16.041 -23.785  0.00  0.00     0.121 A 
ATOM      4  N   UNL d   1      30.264  16.103 -23.978  0.00  0.00    -0.162 NA
ATOM      5  N   UNL d   1      32.025  17.304 -24.440  0.00  0.00    -0.226 NA
ATOM      6  C   UNL d   1      30.387  17.365 -24.633  0.00  0.00     0.086 A 
ATOM      7  C   UNL d   1      30.613  15.454 -23.602  0.00  0.00     0.130 A 
ATOM      8  C   UNL d   1      30.857  17.982 -24.913  0.00  0.00     0.038 A 
ATOM      9  C   UNL d   1      31.676  17.952 -24.817  0.00  0.00     0.085 A 
ATOM     10  C   UNL d   1      29.568  17.395 -24.730  0.00  0.00     0.021 C 
ATOM     11  C   UNL d   1      32.146  18.569 -25.096  0.00  0.00     0.021 C 
ENDROOT
BRANCH   3  12
ATOM     12  C   UNL d   1      32.678  15.829 -23.596  0.00  0.00     0.215 C 
ATOM     13  O   UNL d   1      33.147  15.453 -24.162  0.00  0.00    -0.644 OA
ATOM     14  O   UNL d   1      32.983  15.992 -22.846  0.00  0.00    -0.644 OA
ENDBRANCH   3  12
TORSDOF 1
ENDMDL
MODEL 7
REMARK VINA RESULT:      -1.7      6.264      6.901
REMARK  1 active torsions:
REMARK  status: ('A' for Active; 'I' for Inactive)
REMARK    1  A    between atoms: C_9  and  C_3 
ROOT
ATOM      1  C   UNL d   1      32.856  22.154 -21.310  0.00  0.00     0.171 A 
ATOM      2  N   UNL d   1      32.952  22.316 -22.113  0.00  0.00    -0.212 N 
ATOM      3  C   UNL d   1      32.663  22.763 -20.785  0.00  0.00     0.121 A 
ATOM      4  N   UNL d   1      32.855  23.087 -22.391  0.00  0.00    -0.162 NA
ATOM      5  N   UNL d   1      32.951  21.387 -21.029  0.00  0.00    -0.226 NA
ATOM      6  C   UNL d   1      33.144  21.710 -22.636  0.00  0.00     0.086 A 
ATOM      7  C   UNL d   1      32.662  23.696 -21.866  0.00  0.00     0.130 A 
ATOM      8  C   UNL d   1      33.241  20.940 -22.357  0.00  0.00     0.038 A 
ATOM      9  C   UNL d   1      33.144  20.778 -21.554  0.00  0.00     0.085 A 
ATOM     10  C   UNL d   1      33.240  21.873 -23.439  0.00  0.00     0.021 C 
ATOM     11  C   UNL d   1      33.241  20.007 -21.276  0.00  0.00     0.021 C 
ENDROOT
BRANCH   3  12
ATOM     12  C   UNL d   1      32.527  22.805 -19.970  0.00  0.00     0.215 C 
ATOM     13  O   UNL d   1      33.163  22.924 -19.456  0.00  0.00    -0.644 OA
ATOM     14  O   UNL d   1      31.761  22.729 -19.672  0.00  0.00    -0.644 OA
ENDBRANCH   3  12
TORSDOF 1
ENDMDL
MODEL 8
REMARK VINA RESULT:      -1.6      1.090      1.628
REMARK  1 active torsions:
REMARK  status: ('A' for Active; 'I' for Inactive)
REMARK    1  A    between atoms: C_9  and  C_3 
ROOT
ATOM      1  C   UNL d   1      29.782  16.788 -24.220  0.00  0.00     0.171 A 
ATOM      2  N   UNL d   1      30.116  16.150 -24.621  0.00  0.00    -0.212 N 
ATOM      3  C   UNL d   1      28.961  16.848 -24.146  0.00  0.00     0.121 A 
ATOM      4  N   UNL d   1      29.629  15.571 -24.950  0.00  0.00    -0.162 NA
ATOM      5  N   UNL d   1      30.266  17.368 -23.891  0.00  0.00    -0.226 NA
ATOM      6  C   UNL d   1      30.934  16.091 -24.695  0.00  0.00     0.086 A 
ATOM      7  C   UNL d   1      28.807  15.630 -24.876  0.00  0.00     0.130 A 
ATOM      8  C   UNL d   1      31.421  16.670 -24.367  0.00  0.00     0.038 A 
ATOM      9  C   UNL d   1      31.087  17.309 -23.965  0.00  0.00     0.085 A 
ATOM     10  C   UNL d   1      31.267  15.453 -25.097  0.00  0.00     0.021 C 
ATOM     11  C   UNL d   1      31.574  17.888 -23.637  0.00  0.00     0.021 C 
ENDROOT
BRANCH   3  12
ATOM     12  C   UNL d   1      28.448  17.392 -23.793  0.00  0.00     0.215 C 
ATOM     13  O   UNL d   1      28.253  18.088 -24.192  0.00  0.00    -0.644 OA
ATOM     14  O   UNL d   1      28.132  17.240 -23.045  0.00  0.00    -0.644 OA
ENDBRANCH   3  12
TORSDOF 1
ENDMDL
MODEL 9
REMARK VINA RESULT:      -1.3      3.380      4.037
REMARK  1 active torsions:
REMARK  status: ('A' for Active; 'I' for Inactive)
REMARK    1  A    between atoms: C_9  and  C_3 
ROOT
ATOM      1  C   UNL d   1      32.908  18.675 -23.285  0.00  0.00     0.171 A 
ATOM      2  N   UNL d   1      33.009  19.337 -23.766  0.00  0.00    -0.212 N 
ATOM      3  C   UNL d   1      32.777  17.932 -23.624  0.00  0.00     0.121 A 
ATOM      4  N   UNL d   1      32.980  19.257 -24.587  0.00  0.00    -0.162 NA
ATOM      5  N   UNL d   1      32.938  18.751 -22.466  0.00  0.00    -0.226 NA
ATOM      6  C   UNL d   1      33.140  20.076 -23.429  0.00  0.00     0.086 A 
ATOM      7  C   UNL d   1      32.848  18.515 -24.926  0.00  0.00     0.130 A 
ATOM      8  C   UNL d   1      33.170  20.156 -22.608  0.00  0.00     0.038 A 
ATOM      9  C   UNL d   1      33.069  19.494 -22.127  0.00  0.00     0.085 A 
ATOM     10  C   UNL d   1      33.241  20.738 -23.910  0.00  0.00     0.021 C 
ATOM     11  C   UNL d   1      33.099  19.574 -21.306  0.00  0.00     0.021 C 
ENDROOT
BRANCH   3  12
ATOM     12  C   UNL d   1      32.656  17.171 -23.325  0.00  0.00     0.215 C 
ATOM     13  O   UNL d   1      31.946  16.991 -22.942  0.00  0.00    -0.644 OA
ATOM     14  O   UNL d   1      33.241  16.594 -23.408  0.00  0.00    -0.644 OA
ENDBRANCH   3  12
TORSDOF 1
ENDMDL
