MODEL 1
REMARK VINA RESULT:      -9.3      0.000      0.000
REMARK  1 active torsions:
REMARK  status: ('A' for Active; 'I' for Inactive)
REMARK    1  A    between atoms: C_7  and  N_1 
ROOT
ATOM      1  N   UNL d   1      54.140  32.450  54.140  0.00  0.00    -0.226 N 
ATOM      2  C   UNL d   1      54.721  32.880  53.742  0.00  0.00     0.359 A 
ATOM      3  C   UNL d   1      54.000  32.588  54.943  0.00  0.00     0.273 A 
ATOM      4  N   UNL d   1      55.161  33.449  54.147  0.00  0.00    -0.153 NA
ATOM      5  C   UNL d   1      55.020  33.587  54.949  0.00  0.00     0.288 A 
ATOM      6  C   UNL d   1      54.440  33.156  55.348  0.00  0.00     0.124 A 
ATOM      7  O   UNL d   1      54.864  32.745  52.939  0.00  0.00    -0.244 OA
ATOM      8  O   UNL d   1      53.419  32.157  55.341  0.00  0.00    -0.266 OA
ATOM      9  O   UNL d   1      55.460  34.155  55.355  0.00  0.00    -0.265 OA
ENDROOT
BRANCH   1  10
ATOM     10  C   UNL d   1      53.701  31.881  53.735  0.00  0.00     0.071 A 
ATOM     11  C   UNL d   1      53.018  32.112  53.311  0.00  0.00     0.016 A 
ATOM     12  C   UNL d   1      52.790  32.907  53.301  0.00  0.00     0.002 C 
ATOM     13  C   UNL d   1      52.577  31.548  52.905  0.00  0.00     0.001 A 
ATOM     14  C   UNL d   1      52.808  30.754  52.917  0.00  0.00     0.000 A 
ATOM     15  C   UNL d   1      53.482  30.530  53.336  0.00  0.00     0.002 A 
ATOM     16  C   UNL d   1      53.932  31.097  53.749  0.00  0.00     0.018 A 
ENDBRANCH   1  10
TORSDOF 1
ENDMDL
MODEL 2
REMARK VINA RESULT:      -9.0      1.641      2.394
REMARK  1 active torsions:
REMARK  status: ('A' for Active; 'I' for Inactive)
REMARK    1  A    between atoms: C_7  and  N_1 
ROOT
ATOM      1  N   UNL d   1      53.162  33.746  54.043  0.00  0.00    -0.226 N 
ATOM      2  C   UNL d   1      53.289  34.244  54.689  0.00  0.00     0.359 A 
ATOM      3  C   UNL d   1      53.737  33.193  53.828  0.00  0.00     0.273 A 
ATOM      4  N   UNL d   1      53.991  34.188  55.119  0.00  0.00    -0.153 NA
ATOM      5  C   UNL d   1      54.565  33.635  54.904  0.00  0.00     0.288 A 
ATOM      6  C   UNL d   1      54.439  33.137  54.258  0.00  0.00     0.124 A 
ATOM      7  O   UNL d   1      52.716  34.800  54.908  0.00  0.00    -0.244 OA
ATOM      8  O   UNL d   1      53.611  32.695  53.182  0.00  0.00    -0.266 OA
ATOM      9  O   UNL d   1      55.268  33.579  55.334  0.00  0.00    -0.265 OA
ENDROOT
BRANCH   1  10
ATOM     10  C   UNL d   1      52.460  33.802  53.613  0.00  0.00     0.071 A 
ATOM     11  C   UNL d   1      52.391  34.377  53.009  0.00  0.00     0.016 A 
ATOM     12  C   UNL d   1      53.026  34.882  52.848  0.00  0.00     0.002 C 
ATOM     13  C   UNL d   1      51.693  34.436  52.578  0.00  0.00     0.001 A 
ATOM     14  C   UNL d   1      51.060  33.929  52.742  0.00  0.00     0.000 A 
ATOM     15  C   UNL d   1      51.132  33.364  53.338  0.00  0.00     0.002 A 
ATOM     16  C   UNL d   1      51.837  33.299  53.778  0.00  0.00     0.018 A 
ENDBRANCH   1  10
TORSDOF 1
ENDMDL
MODEL 3
REMARK VINA RESULT:      -8.8      1.676      2.223
REMARK  1 active torsions:
REMARK  status: ('A' for Active; 'I' for Inactive)
REMARK    1  A    between atoms: C_7  and  N_1 
ROOT
ATOM      1  N   UNL d   1      53.214  33.727  53.978  0.00  0.00    -0.226 N 
ATOM      2  C   UNL d   1      53.392  33.936  54.756  0.00  0.00     0.359 A 
ATOM      3  C   UNL d   1      52.956  34.301  53.443  0.00  0.00     0.273 A 
ATOM      4  N   UNL d   1      53.312  34.721  54.998  0.00  0.00    -0.153 NA
ATOM      5  C   UNL d   1      53.054  35.296  54.463  0.00  0.00     0.288 A 
ATOM      6  C   UNL d   1      52.876  35.086  53.685  0.00  0.00     0.124 A 
ATOM      7  O   UNL d   1      53.651  33.364  55.294  0.00  0.00    -0.244 OA
ATOM      8  O   UNL d   1      52.778  34.092  52.665  0.00  0.00    -0.266 OA
ATOM      9  O   UNL d   1      52.974  36.081  54.705  0.00  0.00    -0.265 OA
ENDROOT
BRANCH   1  10
ATOM     10  C   UNL d   1      53.294  32.942  53.736  0.00  0.00     0.071 A 
ATOM     11  C   UNL d   1      54.053  32.641  53.556  0.00  0.00     0.016 A 
ATOM     12  C   UNL d   1      54.716  33.132  53.622  0.00  0.00     0.002 C 
ATOM     13  C   UNL d   1      54.137  31.859  53.314  0.00  0.00     0.001 A 
ATOM     14  C   UNL d   1      53.473  31.371  53.249  0.00  0.00     0.000 A 
ATOM     15  C   UNL d   1      52.725  31.672  53.427  0.00  0.00     0.002 A 
ATOM     16  C   UNL d   1      52.634  32.463  53.672  0.00  0.00     0.018 A 
ENDBRANCH   1  10
TORSDOF 1
ENDMDL
MODEL 4
REMARK VINA RESULT:      -8.6      1.908      3.259
REMARK  1 active torsions:
REMARK  status: ('A' for Active; 'I' for Inactive)
REMARK    1  A    between atoms: C_7  and  N_1 
ROOT
ATOM      1  N   UNL d   1      52.796  33.742  53.674  0.00  0.00    -0.226 N 
ATOM      2  C   UNL d   1      52.260  33.132  53.527  0.00  0.00     0.359 A 
ATOM      3  C   UNL d   1      52.672  34.490  53.348  0.00  0.00     0.273 A 
ATOM      4  N   UNL d   1      51.599  33.272  53.053  0.00  0.00    -0.153 NA
ATOM      5  C   UNL d   1      51.475  34.021  52.726  0.00  0.00     0.288 A 
ATOM      6  C   UNL d   1      52.011  34.631  52.873  0.00  0.00     0.124 A 
ATOM      7  O   UNL d   1      52.381  32.381  53.853  0.00  0.00    -0.244 OA
ATOM      8  O   UNL d   1      53.208  35.100  53.495  0.00  0.00    -0.266 OA
ATOM      9  O   UNL d   1      50.815  34.161  52.251  0.00  0.00    -0.265 OA
ENDROOT
BRANCH   1  10
ATOM     10  C   UNL d   1      53.456  33.602  54.149  0.00  0.00     0.071 A 
ATOM     11  C   UNL d   1      54.129  33.229  53.821  0.00  0.00     0.016 A 
ATOM     12  C   UNL d   1      54.127  33.005  53.025  0.00  0.00     0.002 C 
ATOM     13  C   UNL d   1      54.790  33.087  54.291  0.00  0.00     0.001 A 
ATOM     14  C   UNL d   1      54.789  33.313  55.086  0.00  0.00     0.000 A 
ATOM     15  C   UNL d   1      54.123  33.681  55.407  0.00  0.00     0.002 A 
ATOM     16  C   UNL d   1      53.452  33.826  54.936  0.00  0.00     0.018 A 
ENDBRANCH   1  10
TORSDOF 1
ENDMDL
MODEL 5
REMARK VINA RESULT:      -8.5      1.451      2.984
REMARK  1 active torsions:
REMARK  status: ('A' for Active; 'I' for Inactive)
REMARK    1  A    between atoms: C_7  and  N_1 
ROOT
ATOM      1  N   UNL d   1      53.287  32.154  53.644  0.00  0.00    -0.226 N 
ATOM      2  C   UNL d   1      52.925  32.145  52.902  0.00  0.00     0.359 A 
ATOM      3  C   UNL d   1      53.455  31.444  54.031  0.00  0.00     0.273 A 
ATOM      4  N   UNL d   1      52.731  31.425  52.549  0.00  0.00    -0.153 NA
ATOM      5  C   UNL d   1      52.898  30.715  52.937  0.00  0.00     0.288 A 
ATOM      6  C   UNL d   1      53.261  30.724  53.678  0.00  0.00     0.124 A 
ATOM      7  O   UNL d   1      52.756  32.854  52.512  0.00  0.00    -0.244 OA
ATOM      8  O   UNL d   1      53.817  31.452  54.773  0.00  0.00    -0.266 OA
ATOM      9  O   UNL d   1      52.704  29.995  52.583  0.00  0.00    -0.265 OA
ENDROOT
BRANCH   1  10
ATOM     10  C   UNL d   1      53.482  32.874  53.997  0.00  0.00     0.071 A 
ATOM     11  C   UNL d   1      54.258  33.175  53.921  0.00  0.00     0.016 A 
ATOM     12  C   UNL d   1      54.823  32.750  53.492  0.00  0.00     0.002 C 
ATOM     13  C   UNL d   1      54.456  33.893  54.271  0.00  0.00     0.001 A 
ATOM     14  C   UNL d   1      53.888  34.316  54.699  0.00  0.00     0.000 A 
ATOM     15  C   UNL d   1      53.123  34.015  54.773  0.00  0.00     0.002 A 
ATOM     16  C   UNL d   1      52.917  33.289  54.420  0.00  0.00     0.018 A 
ENDBRANCH   1  10
TORSDOF 1
ENDMDL
