MODEL 1
REMARK VINA RESULT:      56.2      0.000      0.000
REMARK  9 active torsions:
REMARK  status: ('A' for Active; 'I' for Inactive)
REMARK       I    between atoms: C_5  and  N_1 
REMARK    1  A    between atoms: C_6  and  N_1 
REMARK    2  A    between atoms: C_7  and  C_3 
REMARK    3  A    between atoms: C_8  and  C_4 
REMARK    4  A    between atoms: C_17  and  C_5 
REMARK    5  A    between atoms: N_9  and  C_6 
REMARK    6  A    between atoms: N_14  and  N_9 
REMARK       I    between atoms: C_10  and  N_14 
REMARK    7  A    between atoms: C_20  and  C_10 
REMARK    8  A    between atoms: C_16  and  C_21 
REMARK    9  A    between atoms: C_21  and  C_20 
ROOT
ATOM      1  C   UNL d   1      14.739  15.455  -2.906  0.00  0.00     0.064 C 
ENDROOT
BRANCH   1   2
ATOM      2  C   UNL d   1      14.763  16.274  -2.879  0.00  0.00     0.297 C 
ATOM      3  N   UNL d   1      14.791  16.717  -3.569  0.00  0.00    -0.103 NA
ATOM      4  O   UNL d   1      14.759  16.644  -2.141  0.00  0.00    -0.264 OA
BRANCH   3   5
ATOM      5  N   UNL d   1      14.796  16.355  -4.306  0.00  0.00    -0.114 NA
BRANCH   5   6
ATOM      6  C   UNL d   1      14.604  16.750  -4.980  0.00  0.00     0.243 C 
ATOM      7  S   UNL d   1      14.455  16.344  -5.675  0.00  0.00    -0.035 SA
BRANCH   6   8
ATOM      8  N   UNL d   1      14.558  17.572  -4.966  0.00  0.00    -0.177 NA
ATOM      9  C   UNL d   1      14.459  17.988  -5.666  0.00  0.00     0.281 C 
ATOM     10  O   UNL d   1      14.404  17.601  -6.385  0.00  0.00    -0.265 OA
BRANCH   9  11
ATOM     11  C   UNL d   1      14.415  18.805  -5.639  0.00  0.00     0.058 A 
ATOM     12  C   UNL d   1      13.700  19.197  -5.776  0.00  0.00     0.005 A 
ATOM     13  C   UNL d   1      13.647  20.020  -5.751  0.00  0.00     0.000 A 
ATOM     14  C   UNL d   1      14.329  20.467  -5.583  0.00  0.00     0.000 A 
ATOM     15  C   UNL d   1      15.048  20.087  -5.444  0.00  0.00     0.000 A 
ATOM     16  C   UNL d   1      15.085  19.261  -5.473  0.00  0.00     0.005 A 
ENDBRANCH   9  11
ENDBRANCH   6   8
ENDBRANCH   5   6
ENDBRANCH   3   5
ENDBRANCH   1   2
BRANCH   1  17
ATOM     17  C   UNL d   1      14.230  15.047  -2.407  0.00  0.00     0.005 C 
BRANCH  17  18
ATOM     18  C   UNL d   1      14.102  14.231  -2.501  0.00  0.00    -0.000 A 
ATOM     19  C   UNL d   1      14.376  13.710  -1.931  0.00  0.00    -0.001 A 
ATOM     20  C   UNL d   1      14.259  12.901  -2.008  0.00  0.00     0.016 A 
ATOM     21  C   UNL d   1      13.861  12.611  -2.665  0.00  0.00     0.188 A 
ATOM     22  C   UNL d   1      13.576  13.125  -3.253  0.00  0.00     0.016 A 
ATOM     23  O   UNL d   1      13.734  11.781  -2.754  0.00  0.00    -0.287 OA
ATOM     24  C   UNL d   1      13.704  13.940  -3.158  0.00  0.00    -0.001 A 
BRANCH  20  25
ATOM     25  C   UNL d   1      14.533  12.380  -1.437  0.00  0.00     0.022 C 
ATOM     26  C   UNL d   1      13.761  12.241  -1.169  0.00  0.00     0.004 C 
ATOM     27  C   UNL d   1      15.326  12.508  -1.695  0.00  0.00     0.004 C 
ATOM     28  C   UNL d   1      14.831  11.845  -0.853  0.00  0.00     0.004 C 
ENDBRANCH  20  25
BRANCH  22  29
ATOM     29  C   UNL d   1      13.175  12.854  -3.918  0.00  0.00     0.022 C 
ATOM     30  C   UNL d   1      13.513  12.112  -3.824  0.00  0.00     0.004 C 
ATOM     31  C   UNL d   1      12.834  13.599  -4.016  0.00  0.00     0.004 C 
ATOM     32  C   UNL d   1      12.769  12.593  -4.586  0.00  0.00     0.004 C 
ENDBRANCH  22  29
ENDBRANCH  17  18
ENDBRANCH   1  17
TORSDOF 9
ENDMDL
MODEL 2
REMARK VINA RESULT:      56.4      0.431      1.783
REMARK  9 active torsions:
REMARK  status: ('A' for Active; 'I' for Inactive)
REMARK       I    between atoms: C_5  and  N_1 
REMARK    1  A    between atoms: C_6  and  N_1 
REMARK    2  A    between atoms: C_7  and  C_3 
REMARK    3  A    between atoms: C_8  and  C_4 
REMARK    4  A    between atoms: C_17  and  C_5 
REMARK    5  A    between atoms: N_9  and  C_6 
REMARK    6  A    between atoms: N_14  and  N_9 
REMARK       I    between atoms: C_10  and  N_14 
REMARK    7  A    between atoms: C_20  and  C_10 
REMARK    8  A    between atoms: C_16  and  C_21 
REMARK    9  A    between atoms: C_21  and  C_20 
ROOT
ATOM      1  C   UNL d   1      14.388  15.516  -3.357  0.00  0.00     0.064 C 
ENDROOT
BRANCH   1   2
ATOM      2  C   UNL d   1      14.653  16.289  -3.289  0.00  0.00     0.297 C 
ATOM      3  N   UNL d   1      14.911  16.705  -3.948  0.00  0.00    -0.103 NA
ATOM      4  O   UNL d   1      14.656  16.641  -2.542  0.00  0.00    -0.264 OA
BRANCH   3   5
ATOM      5  N   UNL d   1      14.910  16.361  -4.693  0.00  0.00    -0.114 NA
BRANCH   5   6
ATOM      6  C   UNL d   1      14.618  16.738  -5.341  0.00  0.00     0.243 C 
ATOM      7  S   UNL d   1      14.287  16.315  -5.959  0.00  0.00    -0.035 SA
BRANCH   6   8
ATOM      8  N   UNL d   1      14.655  17.560  -5.378  0.00  0.00    -0.177 NA
ATOM      9  C   UNL d   1      14.168  17.968  -5.898  0.00  0.00     0.281 C 
ATOM     10  O   UNL d   1      13.642  17.572  -6.385  0.00  0.00    -0.265 OA
BRANCH   9  11
ATOM     11  C   UNL d   1      14.213  18.784  -5.926  0.00  0.00     0.058 A 
ATOM     12  C   UNL d   1      13.542  19.251  -5.804  0.00  0.00     0.005 A 
ATOM     13  C   UNL d   1      13.579  20.076  -5.830  0.00  0.00     0.000 A 
ATOM     14  C   UNL d   1      14.308  20.445  -5.983  0.00  0.00     0.000 A 
ATOM     15  C   UNL d   1      14.985  19.990  -6.106  0.00  0.00     0.000 A 
ATOM     16  C   UNL d   1      14.932  19.165  -6.076  0.00  0.00     0.005 A 
ENDBRANCH   9  11
ENDBRANCH   6   8
ENDBRANCH   5   6
ENDBRANCH   3   5
ENDBRANCH   1   2
BRANCH   1  17
ATOM     17  C   UNL d   1      14.251  15.073  -2.679  0.00  0.00     0.005 C 
BRANCH  17  18
ATOM     18  C   UNL d   1      14.146  14.249  -2.722  0.00  0.00    -0.000 A 
ATOM     19  C   UNL d   1      13.730  13.927  -3.351  0.00  0.00    -0.001 A 
ATOM     20  C   UNL d   1      13.616  13.116  -3.409  0.00  0.00     0.016 A 
ATOM     21  C   UNL d   1      13.924  12.621  -2.830  0.00  0.00     0.188 A 
ATOM     22  C   UNL d   1      14.349  12.931  -2.185  0.00  0.00     0.016 A 
ATOM     23  O   UNL d   1      13.814  11.786  -2.879  0.00  0.00    -0.287 OA
ATOM     24  C   UNL d   1      14.453  13.754  -2.143  0.00  0.00    -0.001 A 
BRANCH  20  25
ATOM     25  C   UNL d   1      13.200  12.794  -4.038  0.00  0.00     0.022 C 
ATOM     26  C   UNL d   1      13.094  12.082  -3.624  0.00  0.00     0.004 C 
ATOM     27  C   UNL d   1      13.297  13.508  -4.475  0.00  0.00     0.004 C 
ATOM     28  C   UNL d   1      12.773  12.474  -4.694  0.00  0.00     0.004 C 
ENDBRANCH  20  25
BRANCH  22  29
ATOM     29  C   UNL d   1      14.665  12.453  -1.595  0.00  0.00     0.022 C 
ATOM     30  C   UNL d   1      14.762  11.844  -2.137  0.00  0.00     0.004 C 
ATOM     31  C   UNL d   1      14.568  13.064  -1.049  0.00  0.00     0.004 C 
ATOM     32  C   UNL d   1      14.980  11.983  -0.997  0.00  0.00     0.004 C 
ENDBRANCH  22  29
ENDBRANCH  17  18
ENDBRANCH   1  17
TORSDOF 9
ENDMDL
