MODEL 1
REMARK VINA RESULT:      -4.1      0.000      0.000
REMARK  0 active torsions:
REMARK  status: ('A' for Active; 'I' for Inactive)
ROOT
ATOM      1  C   UNL d   1     -41.134-121.678 -51.474  0.00  0.00     0.110 A 
ATOM      2  C   UNL d   1     -41.134-122.393 -51.064  0.00  0.00     0.110 A 
ATOM      3  C   UNL d   1     -41.145-121.669 -52.304  0.00  0.00     0.207 A 
ATOM      4  C   UNL d   1     -41.146-123.100 -51.482  0.00  0.00     0.207 A 
ATOM      5  C   UNL d   1     -41.157-122.383 -52.702  0.00  0.00     0.043 A 
ATOM      6  C   UNL d   1     -41.157-123.098 -52.291  0.00  0.00     0.043 A 
ATOM      7  O   UNL d   1     -41.145-120.961 -52.710  0.00  0.00    -0.286 OA
ATOM      8  O   UNL d   1     -41.146-123.817 -51.076  0.00  0.00    -0.286 OA
ATOM      9 CL   UNL d   1     -41.123-122.390 -50.247  0.00  0.00    -0.078 Cl
ATOM     10 CL   UNL d   1     -41.123-120.965 -51.060  0.00  0.00    -0.078 Cl
ATOM     11  C   UNL d   1     -41.168-122.374 -53.532  0.00  0.00     0.003 A 
ATOM     12  C   UNL d   1     -41.168-123.799 -52.729  0.00  0.00     0.003 A 
ATOM     13  C   UNL d   1     -41.179-123.084 -53.949  0.00  0.00     0.000 A 
ATOM     14  C   UNL d   1     -41.180-123.817 -53.543  0.00  0.00     0.000 A 
ENDROOT
TORSDOF 0
ENDMDL
MODEL 2
REMARK VINA RESULT:      -4.0      2.239      3.256
REMARK  0 active torsions:
REMARK  status: ('A' for Active; 'I' for Inactive)
ROOT
ATOM      1  C   UNL d   1     -41.804-122.677 -54.918  0.00  0.00     0.110 A 
ATOM      2  C   UNL d   1     -42.144-121.933 -54.807  0.00  0.00     0.110 A 
ATOM      3  C   UNL d   1     -41.462-123.082 -54.279  0.00  0.00     0.207 A 
ATOM      4  C   UNL d   1     -42.141-121.595 -54.059  0.00  0.00     0.207 A 
ATOM      5  C   UNL d   1     -41.469-122.727 -53.543  0.00  0.00     0.043 A 
ATOM      6  C   UNL d   1     -41.809-121.984 -53.433  0.00  0.00     0.043 A 
ATOM      7  O   UNL d   1     -41.126-123.817 -54.388  0.00  0.00    -0.286 OA
ATOM      8  O   UNL d   1     -42.480-120.851 -53.944  0.00  0.00    -0.286 OA
ATOM      9 CL   UNL d   1     -42.478-121.544 -55.443  0.00  0.00    -0.078 Cl
ATOM     10 CL   UNL d   1     -41.804-123.023 -55.667  0.00  0.00    -0.078 Cl
ATOM     11  C   UNL d   1     -41.127-123.132 -52.905  0.00  0.00     0.003 A 
ATOM     12  C   UNL d   1     -41.797-121.658 -52.673  0.00  0.00     0.003 A 
ATOM     13  C   UNL d   1     -41.126-122.790 -52.156  0.00  0.00     0.000 A 
ATOM     14  C   UNL d   1     -41.468-122.035 -52.030  0.00  0.00     0.000 A 
ENDROOT
TORSDOF 0
ENDMDL
MODEL 3
REMARK VINA RESULT:      -4.0      2.232      2.897
REMARK  0 active torsions:
REMARK  status: ('A' for Active; 'I' for Inactive)
ROOT
ATOM      1  C   UNL d   1     -42.171-121.953 -54.776  0.00  0.00     0.110 A 
ATOM      2  C   UNL d   1     -41.820-122.691 -54.893  0.00  0.00     0.110 A 
ATOM      3  C   UNL d   1     -42.176-121.604 -54.024  0.00  0.00     0.207 A 
ATOM      4  C   UNL d   1     -41.475-123.079 -54.257  0.00  0.00     0.207 A 
ATOM      5  C   UNL d   1     -41.827-122.006 -53.404  0.00  0.00     0.043 A 
ATOM      6  C   UNL d   1     -41.476-122.744 -53.520  0.00  0.00     0.043 A 
ATOM      7  O   UNL d   1     -42.523-120.874 -53.909  0.00  0.00    -0.286 OA
ATOM      8  O   UNL d   1     -41.123-123.817 -54.368  0.00  0.00    -0.286 OA
ATOM      9 CL   UNL d   1     -41.821-123.026 -55.638  0.00  0.00    -0.078 Cl
ATOM     10 CL   UNL d   1     -42.520-121.558 -55.411  0.00  0.00    -0.078 Cl
ATOM     11  C   UNL d   1     -41.832-121.657 -52.651  0.00  0.00     0.003 A 
ATOM     12  C   UNL d   1     -41.133-123.120 -52.869  0.00  0.00     0.003 A 
ATOM     13  C   UNL d   1     -41.485-122.048 -52.016  0.00  0.00     0.000 A 
ATOM     14  C   UNL d   1     -41.125-122.798 -52.121  0.00  0.00     0.000 A 
ENDROOT
TORSDOF 0
ENDMDL
MODEL 4
REMARK VINA RESULT:      -3.4      1.584      2.533
REMARK  0 active torsions:
REMARK  status: ('A' for Active; 'I' for Inactive)
ROOT
ATOM      1  C   UNL d   1     -41.409-122.739 -52.925  0.00  0.00     0.110 A 
ATOM      2  C   UNL d   1     -41.683-121.972 -52.788  0.00  0.00     0.110 A 
ATOM      3  C   UNL d   1     -41.420-123.059 -53.690  0.00  0.00     0.207 A 
ATOM      4  C   UNL d   1     -41.967-121.527 -53.417  0.00  0.00     0.207 A 
ATOM      5  C   UNL d   1     -41.706-122.599 -54.302  0.00  0.00     0.043 A 
ATOM      6  C   UNL d   1     -41.980-121.833 -54.166  0.00  0.00     0.043 A 
ATOM      7  O   UNL d   1     -41.149-123.817 -53.825  0.00  0.00    -0.286 OA
ATOM      8  O   UNL d   1     -42.241-120.760 -53.285  0.00  0.00    -0.286 OA
ATOM      9 CL   UNL d   1     -41.667-121.667 -52.031  0.00  0.00    -0.078 Cl
ATOM     10 CL   UNL d   1     -41.123-123.192 -52.298  0.00  0.00    -0.078 Cl
ATOM     11  C   UNL d   1     -41.717-122.920 -55.068  0.00  0.00     0.003 A 
ATOM     12  C   UNL d   1     -42.262-121.399 -54.810  0.00  0.00     0.003 A 
ATOM     13  C   UNL d   1     -42.002-122.470 -55.695  0.00  0.00     0.000 A 
ATOM     14  C   UNL d   1     -42.283-121.690 -55.570  0.00  0.00     0.000 A 
ENDROOT
TORSDOF 0
ENDMDL
MODEL 5
REMARK VINA RESULT:      -3.2      1.264      2.257
REMARK  0 active torsions:
REMARK  status: ('A' for Active; 'I' for Inactive)
ROOT
ATOM      1  C   UNL d   1     -41.225-121.678 -52.157  0.00  0.00     0.110 A 
ATOM      2  C   UNL d   1     -41.314-122.386 -52.571  0.00  0.00     0.110 A 
ATOM      3  C   UNL d   1     -41.213-121.675 -51.327  0.00  0.00     0.207 A 
ATOM      4  C   UNL d   1     -41.391-123.090 -52.156  0.00  0.00     0.207 A 
ATOM      5  C   UNL d   1     -41.291-122.387 -50.933  0.00  0.00     0.043 A 
ATOM      6  C   UNL d   1     -41.380-123.094 -51.347  0.00  0.00     0.043 A 
ATOM      7  O   UNL d   1     -41.125-120.975 -50.917  0.00  0.00    -0.286 OA
ATOM      8  O   UNL d   1     -41.480-123.800 -52.567  0.00  0.00    -0.286 OA
ATOM      9 CL   UNL d   1     -41.324-122.377 -53.388  0.00  0.00    -0.078 Cl
ATOM     10 CL   UNL d   1     -41.147-120.967 -52.567  0.00  0.00    -0.078 Cl
ATOM     11  C   UNL d   1     -41.280-122.384 -50.103  0.00  0.00     0.003 A 
ATOM     12  C   UNL d   1     -41.457-123.794 -50.913  0.00  0.00     0.003 A 
ATOM     13  C   UNL d   1     -41.357-123.091 -49.690  0.00  0.00     0.000 A 
ATOM     14  C   UNL d   1     -41.449-123.817 -50.099  0.00  0.00     0.000 A 
ENDROOT
TORSDOF 0
ENDMDL
MODEL 6
REMARK VINA RESULT:      -2.3      1.962      2.538
REMARK  0 active torsions:
REMARK  status: ('A' for Active; 'I' for Inactive)
ROOT
ATOM      1  C   UNL d   1     -43.035-122.763 -49.473  0.00  0.00     0.110 A 
ATOM      2  C   UNL d   1     -42.396-123.249 -49.282  0.00  0.00     0.110 A 
ATOM      3  C   UNL d   1     -43.043-122.340 -50.187  0.00  0.00     0.207 A 
ATOM      4  C   UNL d   1     -41.765-123.311 -49.803  0.00  0.00     0.207 A 
ATOM      5  C   UNL d   1     -42.405-122.416 -50.693  0.00  0.00     0.043 A 
ATOM      6  C   UNL d   1     -41.766-122.901 -50.501  0.00  0.00     0.043 A 
ATOM      7  O   UNL d   1     -43.674-121.859 -50.377  0.00  0.00    -0.286 OA
ATOM      8  O   UNL d   1     -41.124-123.796 -49.616  0.00  0.00    -0.286 OA
ATOM      9 CL   UNL d   1     -42.400-123.661 -48.576  0.00  0.00    -0.078 Cl
ATOM     10 CL   UNL d   1     -43.672-122.696 -48.953  0.00  0.00    -0.078 Cl
ATOM     11  C   UNL d   1     -42.412-121.992 -51.406  0.00  0.00     0.003 A 
ATOM     12  C   UNL d   1     -41.139-122.952 -51.038  0.00  0.00     0.003 A 
ATOM     13  C   UNL d   1     -41.778-122.057 -51.927  0.00  0.00     0.000 A 
ATOM     14  C   UNL d   1     -41.123-122.547 -51.744  0.00  0.00     0.000 A 
ENDROOT
TORSDOF 0
ENDMDL
MODEL 7
REMARK VINA RESULT:      -1.8      2.826      4.109
REMARK  0 active torsions:
REMARK  status: ('A' for Active; 'I' for Inactive)
ROOT
ATOM      1  C   UNL d   1     -42.987-122.636 -49.662  0.00  0.00     0.110 A 
ATOM      2  C   UNL d   1     -42.363-122.961 -50.093  0.00  0.00     0.110 A 
ATOM      3  C   UNL d   1     -42.997-122.684 -48.834  0.00  0.00     0.207 A 
ATOM      4  C   UNL d   1     -41.749-123.335 -49.695  0.00  0.00     0.207 A 
ATOM      5  C   UNL d   1     -42.376-123.060 -48.457  0.00  0.00     0.043 A 
ATOM      6  C   UNL d   1     -41.752-123.385 -48.888  0.00  0.00     0.043 A 
ATOM      7  O   UNL d   1     -43.614-122.362 -48.408  0.00  0.00    -0.286 OA
ATOM      8  O   UNL d   1     -41.123-123.661 -50.122  0.00  0.00    -0.286 OA
ATOM      9 CL   UNL d   1     -42.363-122.908 -50.908  0.00  0.00    -0.078 Cl
ATOM     10 CL   UNL d   1     -43.607-122.259 -50.056  0.00  0.00    -0.078 Cl
ATOM     11  C   UNL d   1     -42.386-123.108 -47.629  0.00  0.00     0.003 A 
ATOM     12  C   UNL d   1     -41.142-123.757 -48.471  0.00  0.00     0.003 A 
ATOM     13  C   UNL d   1     -41.769-123.483 -47.233  0.00  0.00     0.000 A 
ATOM     14  C   UNL d   1     -41.129-123.818 -47.659  0.00  0.00     0.000 A 
ENDROOT
TORSDOF 0
ENDMDL
