MODEL 1
REMARK VINA RESULT:     -10.2      0.000      0.000
REMARK  3 active torsions:
REMARK  status: ('A' for Active; 'I' for Inactive)
REMARK    1  A    between atoms: C_12  and  C_5 
REMARK    2  A    between atoms: C_14  and  C_12 
REMARK    3  A    between atoms: C_15  and  C_14 
ROOT
ATOM      1  C   UNL d   1      54.126  33.395  54.774  0.00  0.00     0.206 A 
ATOM      2  C   UNL d   1      53.537  33.721  54.299  0.00  0.00     0.063 A 
ATOM      3  C   UNL d   1      53.339  32.460  53.679  0.00  0.00     0.111 A 
ATOM      4  C   UNL d   1      53.926  32.135  54.152  0.00  0.00     0.214 A 
ATOM      5  C   UNL d   1      53.145  33.258  53.754  0.00  0.00     0.018 A 
ATOM      6  O   UNL d   1      54.320  32.608  54.701  0.00  0.00    -0.268 OA
ATOM      7  N   UNL d   1      54.417  33.960  55.253  0.00  0.00    -0.123 NA
ATOM      8  N   UNL d   1      54.032  34.651  55.104  0.00  0.00    -0.146 NA
ATOM      9  C   UNL d   1      53.481  34.516  54.512  0.00  0.00     0.106 A 
ATOM     10  C   UNL d   1      52.946  31.987  53.129  0.00  0.00     0.105 C 
ATOM     11  N   UNL d   1      52.557  31.522  52.587  0.00  0.00    -0.191 NA
ATOM     12  N   UNL d   1      54.114  31.367  54.079  0.00  0.00    -0.120 N 
ATOM     13  C   UNL d   1      52.957  35.209  54.225  0.00  0.00     0.023 C 
ENDROOT
BRANCH   5  14
ATOM     14  C   UNL d   1      52.566  33.578  53.287  0.00  0.00     0.001 C 
BRANCH  14  15
ATOM     15  C   UNL d   1      51.639  33.486  53.323  0.00  0.00     0.000 C 
BRANCH  15  16
ATOM     16  C   UNL d   1      51.078  33.858  52.844  0.00  0.00     0.000 A 
ATOM     17  C   UNL d   1      51.247  34.016  52.038  0.00  0.00     0.000 A 
ATOM     18  C   UNL d   1      50.688  34.383  51.576  0.00  0.00     0.000 A 
ATOM     19  C   UNL d   1      49.948  34.602  51.900  0.00  0.00     0.000 A 
ATOM     20  C   UNL d   1      49.783  34.447  52.693  0.00  0.00     0.000 A 
ATOM     21  C   UNL d   1      50.356  34.073  53.159  0.00  0.00     0.000 A 
ENDBRANCH  15  16
ENDBRANCH  14  15
ENDBRANCH   5  14
TORSDOF 3
ENDMDL
MODEL 2
REMARK VINA RESULT:     -10.1      0.563      2.191
REMARK  3 active torsions:
REMARK  status: ('A' for Active; 'I' for Inactive)
REMARK    1  A    between atoms: C_12  and  C_5 
REMARK    2  A    between atoms: C_14  and  C_12 
REMARK    3  A    between atoms: C_15  and  C_14 
ROOT
ATOM      1  C   UNL d   1      54.147  32.090  54.047  0.00  0.00     0.206 A 
ATOM      2  C   UNL d   1      53.412  32.361  53.789  0.00  0.00     0.063 A 
ATOM      3  C   UNL d   1      53.658  33.615  54.406  0.00  0.00     0.111 A 
ATOM      4  C   UNL d   1      54.389  33.345  54.663  0.00  0.00     0.214 A 
ATOM      5  C   UNL d   1      53.168  33.118  53.967  0.00  0.00     0.018 A 
ATOM      6  O   UNL d   1      54.632  32.578  54.481  0.00  0.00    -0.268 OA
ATOM      7  N   UNL d   1      54.249  31.340  53.801  0.00  0.00    -0.123 NA
ATOM      8  N   UNL d   1      53.598  31.111  53.388  0.00  0.00    -0.146 NA
ATOM      9  C   UNL d   1      53.069  31.737  53.372  0.00  0.00     0.106 A 
ATOM     10  C   UNL d   1      53.415  34.381  54.589  0.00  0.00     0.105 C 
ATOM     11  N   UNL d   1      53.175  35.137  54.767  0.00  0.00    -0.191 NA
ATOM     12  N   UNL d   1      54.861  33.823  55.087  0.00  0.00    -0.120 N 
ATOM     13  C   UNL d   1      52.271  31.635  52.936  0.00  0.00     0.023 C 
ENDROOT
BRANCH   5  14
ATOM     14  C   UNL d   1      52.446  33.384  53.713  0.00  0.00     0.001 C 
BRANCH  14  15
ATOM     15  C   UNL d   1      52.228  34.018  53.067  0.00  0.00     0.000 C 
BRANCH  15  16
ATOM     16  C   UNL d   1      51.484  34.166  52.738  0.00  0.00     0.000 A 
ATOM     17  C   UNL d   1      50.813  34.260  53.233  0.00  0.00     0.000 A 
ATOM     18  C   UNL d   1      50.087  34.405  52.899  0.00  0.00     0.000 A 
ATOM     19  C   UNL d   1      50.005  34.460  52.068  0.00  0.00     0.000 A 
ATOM     20  C   UNL d   1      50.666  34.367  51.582  0.00  0.00     0.000 A 
ATOM     21  C   UNL d   1      51.403  34.220  51.927  0.00  0.00     0.000 A 
ENDBRANCH  15  16
ENDBRANCH  14  15
ENDBRANCH   5  14
TORSDOF 3
ENDMDL
MODEL 3
REMARK VINA RESULT:      -9.7      1.526      3.264
REMARK  3 active torsions:
REMARK  status: ('A' for Active; 'I' for Inactive)
REMARK    1  A    between atoms: C_12  and  C_5 
REMARK    2  A    between atoms: C_14  and  C_12 
REMARK    3  A    between atoms: C_15  and  C_14 
ROOT
ATOM      1  C   UNL d   1      53.305  34.721  54.368  0.00  0.00     0.206 A 
ATOM      2  C   UNL d   1      53.383  33.900  54.405  0.00  0.00     0.063 A 
ATOM      3  C   UNL d   1      52.196  33.753  53.642  0.00  0.00     0.111 A 
ATOM      4  C   UNL d   1      52.118  34.569  53.605  0.00  0.00     0.214 A 
ATOM      5  C   UNL d   1      52.834  33.419  54.045  0.00  0.00     0.018 A 
ATOM      6  O   UNL d   1      52.677  35.052  53.971  0.00  0.00    -0.268 OA
ATOM      7  N   UNL d   1      53.910  35.058  54.761  0.00  0.00    -0.123 NA
ATOM      8  N   UNL d   1      54.384  34.479  55.056  0.00  0.00    -0.146 NA
ATOM      9  C   UNL d   1      54.068  33.753  54.841  0.00  0.00     0.106 A 
ATOM     10  C   UNL d   1      51.637  33.270  53.276  0.00  0.00     0.105 C 
ATOM     11  N   UNL d   1      51.087  32.792  52.915  0.00  0.00    -0.191 NA
ATOM     12  N   UNL d   1      51.504  34.891  53.217  0.00  0.00    -0.120 N 
ATOM     13  C   UNL d   1      54.495  32.987  55.102  0.00  0.00     0.023 C 
ENDROOT
BRANCH   5  14
ATOM     14  C   UNL d   1      52.910  32.613  54.081  0.00  0.00     0.001 C 
BRANCH  14  15
ATOM     15  C   UNL d   1      53.312  32.016  53.489  0.00  0.00     0.000 C 
BRANCH  15  16
ATOM     16  C   UNL d   1      53.270  31.191  53.501  0.00  0.00     0.000 A 
ATOM     17  C   UNL d   1      53.287  30.776  54.230  0.00  0.00     0.000 A 
ATOM     18  C   UNL d   1      53.245  29.965  54.229  0.00  0.00     0.000 A 
ATOM     19  C   UNL d   1      53.184  29.544  53.509  0.00  0.00     0.000 A 
ATOM     20  C   UNL d   1      53.166  29.952  52.792  0.00  0.00     0.000 A 
ATOM     21  C   UNL d   1      53.210  30.779  52.798  0.00  0.00     0.000 A 
ENDBRANCH  15  16
ENDBRANCH  14  15
ENDBRANCH   5  14
TORSDOF 3
ENDMDL
MODEL 4
REMARK VINA RESULT:      -9.1      1.602      3.545
REMARK  3 active torsions:
REMARK  status: ('A' for Active; 'I' for Inactive)
REMARK    1  A    between atoms: C_12  and  C_5 
REMARK    2  A    between atoms: C_14  and  C_12 
REMARK    3  A    between atoms: C_15  and  C_14 
ROOT
ATOM      1  C   UNL d   1      52.115  34.696  53.565  0.00  0.00     0.206 A 
ATOM      2  C   UNL d   1      52.144  33.872  53.585  0.00  0.00     0.063 A 
ATOM      3  C   UNL d   1      53.370  33.932  54.297  0.00  0.00     0.111 A 
ATOM      4  C   UNL d   1      53.341  34.752  54.277  0.00  0.00     0.214 A 
ATOM      5  C   UNL d   1      52.766  33.491  53.948  0.00  0.00     0.018 A 
ATOM      6  O   UNL d   1      52.709  35.132  53.909  0.00  0.00    -0.268 OA
ATOM      7  N   UNL d   1      51.456  34.924  53.182  0.00  0.00    -0.123 NA
ATOM      8  N   UNL d   1      51.050  34.269  52.949  0.00  0.00    -0.146 NA
ATOM      9  C   UNL d   1      51.467  33.607  53.194  0.00  0.00     0.106 A 
ATOM     10  C   UNL d   1      54.002  33.551  54.665  0.00  0.00     0.105 C 
ATOM     11  N   UNL d   1      54.625  33.175  55.028  0.00  0.00    -0.191 NA
ATOM     12  N   UNL d   1      53.923  35.177  54.613  0.00  0.00    -0.120 N 
ATOM     13  C   UNL d   1      51.135  32.776  53.004  0.00  0.00     0.023 C 
ENDROOT
BRANCH   5  14
ATOM     14  C   UNL d   1      52.795  32.681  53.968  0.00  0.00     0.001 C 
BRANCH  14  15
ATOM     15  C   UNL d   1      53.319  32.083  53.484  0.00  0.00     0.000 C 
BRANCH  15  16
ATOM     16  C   UNL d   1      53.264  31.258  53.478  0.00  0.00     0.000 A 
ATOM     17  C   UNL d   1      53.333  30.824  54.192  0.00  0.00     0.000 A 
ATOM     18  C   UNL d   1      53.277  30.013  54.175  0.00  0.00     0.000 A 
ATOM     19  C   UNL d   1      53.154  29.612  53.452  0.00  0.00     0.000 A 
ATOM     20  C   UNL d   1      53.086  30.040  52.749  0.00  0.00     0.000 A 
ATOM     21  C   UNL d   1      53.143  30.865  52.772  0.00  0.00     0.000 A 
ENDBRANCH  15  16
ENDBRANCH  14  15
ENDBRANCH   5  14
TORSDOF 3
ENDMDL
MODEL 5
REMARK VINA RESULT:      -7.6      1.830      3.586
REMARK  3 active torsions:
REMARK  status: ('A' for Active; 'I' for Inactive)
REMARK    1  A    between atoms: C_12  and  C_5 
REMARK    2  A    between atoms: C_14  and  C_12 
REMARK    3  A    between atoms: C_15  and  C_14 
ROOT
ATOM      1  C   UNL d   1      51.370  32.610  53.035  0.00  0.00     0.206 A 
ATOM      2  C   UNL d   1      52.082  32.957  53.264  0.00  0.00     0.063 A 
ATOM      3  C   UNL d   1      52.696  31.678  53.290  0.00  0.00     0.111 A 
ATOM      4  C   UNL d   1      51.987  31.332  53.063  0.00  0.00     0.214 A 
ATOM      5  C   UNL d   1      52.742  32.495  53.391  0.00  0.00     0.018 A 
ATOM      6  O   UNL d   1      51.323  31.804  52.935  0.00  0.00    -0.268 OA
ATOM      7  N   UNL d   1      50.820  33.178  52.948  0.00  0.00    -0.123 NA
ATOM      8  N   UNL d   1      51.153  33.891  53.115  0.00  0.00    -0.146 NA
ATOM      9  C   UNL d   1      51.939  33.768  53.313  0.00  0.00     0.106 A 
ATOM     10  C   UNL d   1      53.361  31.206  53.418  0.00  0.00     0.105 C 
ATOM     11  N   UNL d   1      54.017  30.743  53.544  0.00  0.00    -0.191 NA
ATOM     12  N   UNL d   1      51.943  30.545  52.966  0.00  0.00    -0.120 N 
ATOM     13  C   UNL d   1      52.461  34.487  53.531  0.00  0.00     0.023 C 
ENDROOT
BRANCH   5  14
ATOM     14  C   UNL d   1      53.442  32.836  53.616  0.00  0.00     0.001 C 
BRANCH  14  15
ATOM     15  C   UNL d   1      53.956  32.712  54.383  0.00  0.00     0.000 C 
BRANCH  15  16
ATOM     16  C   UNL d   1      54.565  33.195  54.662  0.00  0.00     0.000 A 
ATOM     17  C   UNL d   1      55.186  33.433  54.150  0.00  0.00     0.000 A 
ATOM     18  C   UNL d   1      55.780  33.908  54.435  0.00  0.00     0.000 A 
ATOM     19  C   UNL d   1      55.777  34.159  55.233  0.00  0.00     0.000 A 
ATOM     20  C   UNL d   1      55.166  33.925  55.737  0.00  0.00     0.000 A 
ATOM     21  C   UNL d   1      54.563  33.441  55.441  0.00  0.00     0.000 A 
ENDBRANCH  15  16
ENDBRANCH  14  15
ENDBRANCH   5  14
TORSDOF 3
ENDMDL
MODEL 6
REMARK VINA RESULT:      -7.5      1.722      4.018
REMARK  3 active torsions:
REMARK  status: ('A' for Active; 'I' for Inactive)
REMARK    1  A    between atoms: C_12  and  C_5 
REMARK    2  A    between atoms: C_14  and  C_12 
REMARK    3  A    between atoms: C_15  and  C_14 
ROOT
ATOM      1  C   UNL d   1      51.842  31.516  53.030  0.00  0.00     0.206 A 
ATOM      2  C   UNL d   1      52.590  31.781  53.257  0.00  0.00     0.063 A 
ATOM      3  C   UNL d   1      52.095  33.109  53.335  0.00  0.00     0.111 A 
ATOM      4  C   UNL d   1      51.351  32.845  53.110  0.00  0.00     0.214 A 
ATOM      5  C   UNL d   1      52.717  32.572  53.408  0.00  0.00     0.018 A 
ATOM      6  O   UNL d   1      51.228  32.044  52.958  0.00  0.00    -0.268 OA
ATOM      7  N   UNL d   1      51.868  30.729  52.917  0.00  0.00    -0.123 NA
ATOM      8  N   UNL d   1      52.615  30.469  53.064  0.00  0.00    -0.146 NA
ATOM      9  C   UNL d   1      53.075  31.114  53.276  0.00  0.00     0.106 A 
ATOM     10  C   UNL d   1      52.219  33.910  53.488  0.00  0.00     0.105 C 
ATOM     11  N   UNL d   1      52.342  34.699  53.638  0.00  0.00    -0.191 NA
ATOM     12  N   UNL d   1      50.752  33.362  53.039  0.00  0.00    -0.120 N 
ATOM     13  C   UNL d   1      53.958  30.985  53.477  0.00  0.00     0.023 C 
ENDROOT
BRANCH   5  14
ATOM     14  C   UNL d   1      53.451  32.832  53.631  0.00  0.00     0.001 C 
BRANCH  14  15
ATOM     15  C   UNL d   1      53.882  32.795  54.455  0.00  0.00     0.000 C 
BRANCH  15  16
ATOM     16  C   UNL d   1      54.532  33.240  54.703  0.00  0.00     0.000 A 
ATOM     17  C   UNL d   1      55.143  33.436  54.162  0.00  0.00     0.000 A 
ATOM     18  C   UNL d   1      55.778  33.875  54.417  0.00  0.00     0.000 A 
ATOM     19  C   UNL d   1      55.826  34.130  55.212  0.00  0.00     0.000 A 
ATOM     20  C   UNL d   1      55.225  33.936  55.744  0.00  0.00     0.000 A 
ATOM     21  C   UNL d   1      54.581  33.490  55.480  0.00  0.00     0.000 A 
ENDBRANCH  15  16
ENDBRANCH  14  15
ENDBRANCH   5  14
TORSDOF 3
ENDMDL
