MODEL 1
REMARK VINA RESULT:      34.2      0.000      0.000
REMARK  3 active torsions:
REMARK  status: ('A' for Active; 'I' for Inactive)
REMARK    1  A    between atoms: S_3  and  N_1 
REMARK    2  A    between atoms: C_5  and  C_4 
REMARK    3  A    between atoms: C_11  and  C_6 
ROOT
ATOM      1  N   UNL d   1      46.241 -18.218  43.659  0.00  0.00    -0.155 N 
ATOM      2  N   UNL d   1      46.443 -18.732  43.060  0.00  0.00    -0.153 NA
ATOM      3  C   UNL d   1      45.981 -17.526  43.326  0.00  0.00     0.098 A 
ATOM      4  C   UNL d   1      46.304 -18.351  42.352  0.00  0.00     0.126 A 
ATOM      5  C   UNL d   1      46.019 -17.606  42.507  0.00  0.00     0.043 A 
ENDROOT
BRANCH   3   6
ATOM      6  C   UNL d   1      45.722 -16.857  43.731  0.00  0.00     0.047 A 
ATOM      7  C   UNL d   1      45.029 -16.888  44.179  0.00  0.00     0.140 A 
ATOM      8  N   UNL d   1      44.770 -16.215  44.586  0.00  0.00    -0.234 NA
ATOM      9 CL   UNL d   1      44.596 -17.588  44.221  0.00  0.00    -0.061 Cl
ATOM     10  C   UNL d   1      45.203 -15.514  44.545  0.00  0.00     0.082 A 
ATOM     11  C   UNL d   1      45.896 -15.483  44.097  0.00  0.00     0.018 A 
ATOM     12  C   UNL d   1      44.944 -14.845  44.951  0.00  0.00     0.019 A 
ATOM     13  C   UNL d   1      46.155 -16.153  43.691  0.00  0.00     0.005 A 
ATOM     14  C   UNL d   1      46.329 -14.783  44.056  0.00  0.00     0.002 A 
ATOM     15  C   UNL d   1      46.067 -14.141  44.454  0.00  0.00     0.000 A 
ATOM     16  C   UNL d   1      45.374 -14.172  44.902  0.00  0.00     0.002 A 
ATOM     17  C   UNL d   1      46.500 -13.440  44.413  0.00  0.00     0.000 C 
ENDBRANCH   3   6
BRANCH   1  18
ATOM     18  S   UNL d   1      46.440 -18.754  44.243  0.00  0.00     0.266 S 
ATOM     19  O   UNL d   1      46.511 -19.552  44.082  0.00  0.00    -0.203 OA
ATOM     20  O   UNL d   1      46.530 -18.302  44.929  0.00  0.00    -0.203 OA
ATOM     21  C   UNL d   1      46.644 -19.118  44.955  0.00  0.00     0.165 C 
ENDBRANCH   1  18
BRANCH   4  22
ATOM     22  C   UNL d   1      46.430 -18.664  41.611  0.00  0.00     0.119 A 
ATOM     23  O   UNL d   1      46.538 -19.444  41.413  0.00  0.00    -0.304 OA
ATOM     24  C   UNL d   1      46.646 -19.508  40.608  0.00  0.00     0.123 A 
ATOM     25  C   UNL d   1      46.606 -18.761  40.286  0.00  0.00     0.029 A 
ATOM     26  C   UNL d   1      46.473 -18.224  40.893  0.00  0.00     0.028 A 
ENDBRANCH   4  22
TORSDOF 3
ENDMDL
MODEL 2
REMARK VINA RESULT:      36.5      1.151      2.274
REMARK  3 active torsions:
REMARK  status: ('A' for Active; 'I' for Inactive)
REMARK    1  A    between atoms: S_3  and  N_1 
REMARK    2  A    between atoms: C_5  and  C_4 
REMARK    3  A    between atoms: C_11  and  C_6 
ROOT
ATOM      1  N   UNL d   1      45.959 -17.331  43.315  0.00  0.00    -0.155 N 
ATOM      2  N   UNL d   1      46.076 -18.137  43.360  0.00  0.00    -0.153 NA
ATOM      3  C   UNL d   1      45.720 -17.067  44.043  0.00  0.00     0.098 A 
ATOM      4  C   UNL d   1      45.907 -18.367  44.125  0.00  0.00     0.126 A 
ATOM      5  C   UNL d   1      45.687 -17.713  44.553  0.00  0.00     0.043 A 
ENDROOT
BRANCH   3   6
ATOM      6  C   UNL d   1      45.542 -16.287  44.244  0.00  0.00     0.047 A 
ATOM      7  C   UNL d   1      44.873 -16.121  44.700  0.00  0.00     0.140 A 
ATOM      8  N   UNL d   1      44.695 -15.339  44.901  0.00  0.00    -0.234 NA
ATOM      9 CL   UNL d   1      44.385 -16.735  44.955  0.00  0.00    -0.061 Cl
ATOM     10  C   UNL d   1      45.183 -14.724  44.646  0.00  0.00     0.082 A 
ATOM     11  C   UNL d   1      45.851 -14.890  44.190  0.00  0.00     0.018 A 
ATOM     12  C   UNL d   1      45.004 -13.945  44.847  0.00  0.00     0.019 A 
ATOM     13  C   UNL d   1      46.030 -15.671  43.989  0.00  0.00     0.005 A 
ATOM     14  C   UNL d   1      46.339 -14.276  43.935  0.00  0.00     0.002 A 
ATOM     15  C   UNL d   1      46.154 -13.525  44.137  0.00  0.00     0.000 A 
ATOM     16  C   UNL d   1      45.486 -13.360  44.593  0.00  0.00     0.002 A 
ATOM     17  C   UNL d   1      46.642 -12.911  43.882  0.00  0.00     0.000 C 
ENDBRANCH   3   6
BRANCH   1  18
ATOM     18  S   UNL d   1      46.167 -17.303  42.525  0.00  0.00     0.266 S 
ATOM     19  O   UNL d   1      46.644 -16.708  42.231  0.00  0.00    -0.203 OA
ATOM     20  O   UNL d   1      45.800 -17.958  42.182  0.00  0.00    -0.203 OA
ATOM     21  C   UNL d   1      46.257 -17.452  41.718  0.00  0.00     0.165 C 
ENDBRANCH   1  18
BRANCH   4  22
ATOM     22  C   UNL d   1      45.951 -19.128  44.412  0.00  0.00     0.119 A 
ATOM     23  O   UNL d   1      45.354 -19.572  44.736  0.00  0.00    -0.304 OA
ATOM     24  C   UNL d   1      45.643 -20.303  44.951  0.00  0.00     0.123 A 
ATOM     25  C   UNL d   1      46.435 -20.327  44.763  0.00  0.00     0.029 A 
ATOM     26  C   UNL d   1      46.644 -19.607  44.428  0.00  0.00     0.028 A 
ENDBRANCH   4  22
TORSDOF 3
ENDMDL
