MODEL 1
REMARK VINA RESULT:      35.4      0.000      0.000
REMARK  1 active torsions:
REMARK  status: ('A' for Active; 'I' for Inactive)
REMARK    1  A    between atoms: C_10  and  C_4 
ROOT
ATOM      1  C   UNL d   1      14.461  14.147  -1.904  0.00  0.00     0.111 A 
ATOM      2  C   UNL d   1      13.885  13.034  -2.618  0.00  0.00     0.062 A 
ATOM      3  C   UNL d   1      14.330  14.631  -2.536  0.00  0.00     0.213 A 
ATOM      4  C   UNL d   1      14.236  13.324  -1.934  0.00  0.00     0.018 A 
ATOM      5  C   UNL d   1      13.751  13.551  -3.282  0.00  0.00     0.105 A 
ATOM      6  O   UNL d   1      13.960  14.311  -3.249  0.00  0.00    -0.287 OA
ATOM      7  C   UNL d   1      14.810  14.435  -1.224  0.00  0.00     0.105 C 
ATOM      8  C   UNL d   1      13.657  12.245  -2.680  0.00  0.00     0.198 A 
ATOM      9  N   UNL d   1      15.165  14.729  -0.531  0.00  0.00    -0.191 NA
ATOM     10  N   UNL d   1      14.548  15.451  -2.522  0.00  0.00    -0.120 N 
ATOM     11  O   UNL d   1      13.803  11.779  -2.018  0.00  0.00    -0.286 OA
ATOM     12  C   UNL d   1      13.395  13.257  -3.975  0.00  0.00     0.025 A 
ATOM     13  C   UNL d   1      13.308  11.957  -3.360  0.00  0.00     0.042 A 
ATOM     14  C   UNL d   1      13.169  12.442  -4.013  0.00  0.00     0.005 A 
ENDROOT
BRANCH   4  15
ATOM     15  C   UNL d   1      14.359  12.820  -1.309  0.00  0.00     0.001 A 
ATOM     16  C   UNL d   1      13.823  12.782  -0.675  0.00  0.00     0.000 A 
ATOM     17  C   UNL d   1      13.957  12.267  -0.046  0.00  0.00     0.000 A 
ATOM     18  C   UNL d   1      14.620  11.781  -0.030  0.00  0.00     0.000 A 
ATOM     19  C   UNL d   1      15.156  11.818  -0.663  0.00  0.00     0.000 A 
ATOM     20  C   UNL d   1      15.022  12.334  -1.292  0.00  0.00     0.000 A 
ENDBRANCH   4  15
TORSDOF 1
ENDMDL
