MODEL 1
REMARK VINA RESULT:      -8.1      0.000      0.000
REMARK  1 active torsions:
REMARK  status: ('A' for Active; 'I' for Inactive)
REMARK       I    between atoms: C_8  and  N_9 
REMARK    1  A    between atoms: N_9  and  C_10 
ROOT
ATOM      1  C   UNL d   1     -48.342  13.153  23.204  0.00  0.00     0.102 A 
ATOM      2  O   UNL d   1     -49.057  13.564  23.144  0.00  0.00    -0.307 OA
ATOM      3  C   UNL d   1     -48.499  12.372  23.410  0.00  0.00     0.025 A 
ATOM      4  C   UNL d   1     -49.321  12.295  23.479  0.00  0.00     0.025 A 
ATOM      5  C   UNL d   1     -49.661  13.025  23.316  0.00  0.00     0.100 A 
ATOM      6  C   UNL d   1     -47.565  13.400  23.095  0.00  0.00     0.044 A 
ATOM      7  C   UNL d   1     -47.886  11.837  23.507  0.00  0.00     0.004 A 
ATOM      8  C   UNL d   1     -46.944  12.870  23.190  0.00  0.00     0.087 A 
ATOM      9  C   UNL d   1     -47.105  12.082  23.398  0.00  0.00     0.019 A 
ATOM     10  C   UNL d   1     -49.803  11.645  23.671  0.00  0.00     0.002 A 
ATOM     11  C   UNL d   1     -50.482  13.115  23.344  0.00  0.00     0.025 A 
ATOM     12  C   UNL d   1     -50.618  11.736  23.698  0.00  0.00     0.000 A 
ATOM     13  C   UNL d   1     -50.960  12.472  23.534  0.00  0.00     0.002 A 
ENDROOT
BRANCH   8  14
ATOM     14  N   UNL d   1     -46.164  13.115  23.082  0.00  0.00    -0.208 NA
ATOM     15  C   UNL d   1     -45.852  13.179  22.320  0.00  0.00     0.279 C 
ATOM     16  O   UNL d   1     -46.327  12.996  21.667  0.00  0.00    -0.265 OA
ATOM     17  C   UNL d   1     -45.069  13.425  22.209  0.00  0.00     0.068 C 
ENDBRANCH   8  14
TORSDOF 1
ENDMDL
MODEL 2
REMARK VINA RESULT:      -8.0      1.529      2.190
REMARK  1 active torsions:
REMARK  status: ('A' for Active; 'I' for Inactive)
REMARK       I    between atoms: C_8  and  N_9 
REMARK    1  A    between atoms: N_9  and  C_10 
ROOT
ATOM      1  C   UNL d   1     -48.760  13.774  22.981  0.00  0.00     0.102 A 
ATOM      2  O   UNL d   1     -49.519  13.553  23.227  0.00  0.00    -0.307 OA
ATOM      3  C   UNL d   1     -48.715  14.595  22.961  0.00  0.00     0.025 A 
ATOM      4  C   UNL d   1     -49.452  14.890  23.197  0.00  0.00     0.025 A 
ATOM      5  C   UNL d   1     -49.943  14.251  23.359  0.00  0.00     0.100 A 
ATOM      6  C   UNL d   1     -48.106  13.321  22.772  0.00  0.00     0.044 A 
ATOM      7  C   UNL d   1     -48.021  14.967  22.734  0.00  0.00     0.004 A 
ATOM      8  C   UNL d   1     -47.406  13.687  22.544  0.00  0.00     0.087 A 
ATOM      9  C   UNL d   1     -47.362  14.516  22.525  0.00  0.00     0.019 A 
ATOM     10  C   UNL d   1     -49.738  15.666  23.284  0.00  0.00     0.002 A 
ATOM     11  C   UNL d   1     -50.720  14.379  23.609  0.00  0.00     0.025 A 
ATOM     12  C   UNL d   1     -50.510  15.791  23.533  0.00  0.00     0.000 A 
ATOM     13  C   UNL d   1     -51.003  15.146  23.696  0.00  0.00     0.002 A 
ENDROOT
BRANCH   8  14
ATOM     14  N   UNL d   1     -46.747  13.235  22.334  0.00  0.00    -0.208 NA
ATOM     15  C   UNL d   1     -46.160  13.077  22.892  0.00  0.00     0.279 C 
ATOM     16  O   UNL d   1     -46.235  13.372  23.661  0.00  0.00    -0.265 OA
ATOM     17  C   UNL d   1     -45.498  12.624  22.683  0.00  0.00     0.068 C 
ENDBRANCH   8  14
TORSDOF 1
ENDMDL
MODEL 3
REMARK VINA RESULT:      -7.8      1.796      3.868
REMARK  1 active torsions:
REMARK  status: ('A' for Active; 'I' for Inactive)
REMARK       I    between atoms: C_8  and  N_9 
REMARK    1  A    between atoms: N_9  and  C_10 
ROOT
ATOM      1  C   UNL d   1     -48.315  13.562  23.011  0.00  0.00     0.102 A 
ATOM      2  O   UNL d   1     -47.964  12.855  23.256  0.00  0.00    -0.307 OA
ATOM      3  C   UNL d   1     -47.737  14.048  22.685  0.00  0.00     0.025 A 
ATOM      4  C   UNL d   1     -47.018  13.640  22.726  0.00  0.00     0.025 A 
ATOM      5  C   UNL d   1     -47.158  12.909  23.075  0.00  0.00     0.100 A 
ATOM      6  C   UNL d   1     -49.095  13.820  23.049  0.00  0.00     0.044 A 
ATOM      7  C   UNL d   1     -47.933  14.790  22.396  0.00  0.00     0.004 A 
ATOM      8  C   UNL d   1     -49.300  14.563  22.761  0.00  0.00     0.087 A 
ATOM      9  C   UNL d   1     -48.715  15.051  22.432  0.00  0.00     0.019 A 
ATOM     10  C   UNL d   1     -46.248  13.845  22.486  0.00  0.00     0.002 A 
ATOM     11  C   UNL d   1     -46.535  12.378  23.189  0.00  0.00     0.025 A 
ATOM     12  C   UNL d   1     -45.631  13.316  22.600  0.00  0.00     0.000 A 
ATOM     13  C   UNL d   1     -45.773  12.581  22.952  0.00  0.00     0.002 A 
ENDROOT
BRANCH   8  14
ATOM     14  N   UNL d   1     -50.082  14.824  22.797  0.00  0.00    -0.208 NA
ATOM     15  C   UNL d   1     -50.280  15.474  23.266  0.00  0.00     0.279 C 
ATOM     16  O   UNL d   1     -49.691  15.861  23.698  0.00  0.00    -0.265 OA
ATOM     17  C   UNL d   1     -51.064  15.738  23.303  0.00  0.00     0.068 C 
ENDBRANCH   8  14
TORSDOF 1
ENDMDL
