MODEL 1
REMARK VINA RESULT:      -4.0      0.000      0.000
REMARK  4 active torsions:
REMARK  status: ('A' for Active; 'I' for Inactive)
REMARK    1  A    between atoms: N_2  and  S_1 
REMARK    2  A    between atoms: C_7  and  S_1 
REMARK    3  A    between atoms: S_9  and  C_3 
REMARK    4  A    between atoms: C_13  and  S_9 
ROOT
ATOM      1  S   UNL d   1     -41.472-121.786 -51.857  0.00  0.00     0.273 S 
ATOM      2  O   UNL d   1     -41.127-121.455 -52.523  0.00  0.00    -0.200 OA
ATOM      3  O   UNL d   1     -41.403-120.978 -51.685  0.00  0.00    -0.200 OA
ENDROOT
BRANCH   1   4
ATOM      4  N   UNL d   1     -41.434-122.519 -52.248  0.00  0.00    -0.208 N 
ATOM      5  C   UNL d   1     -41.700-122.674 -53.022  0.00  0.00     0.189 A 
ATOM      6  N   UNL d   1     -41.556-123.474 -53.190  0.00  0.00    -0.219 NA
ATOM      7  C   UNL d   1     -41.200-123.811 -52.520  0.00  0.00     0.121 A 
ATOM      8  C   UNL d   1     -41.123-123.228 -51.937  0.00  0.00     0.114 A 
BRANCH   5   9
ATOM      9  S   UNL d   1     -42.051-122.120 -53.537  0.00  0.00    -0.049 SA
BRANCH   9  10
ATOM     10  C   UNL d   1     -42.010-122.236 -54.355  0.00  0.00     0.038 C 
ATOM     11  C   UNL d   1     -42.485-121.783 -54.856  0.00  0.00     0.008 C 
ENDBRANCH   9  10
ENDBRANCH   5   9
ENDBRANCH   1   4
BRANCH   1  12
ATOM     12  C   UNL d   1     -41.822-122.103 -51.177  0.00  0.00     0.104 A 
ATOM     13  C   UNL d   1     -41.350-122.480 -50.620  0.00  0.00     0.013 A 
ATOM     14  C   UNL d   1     -41.699-122.796 -49.943  0.00  0.00     0.001 A 
ATOM     15  C   UNL d   1     -42.513-122.731 -49.829  0.00  0.00     0.000 A 
ATOM     16  C   UNL d   1     -42.980-122.353 -50.389  0.00  0.00     0.001 A 
ATOM     17  C   UNL d   1     -42.627-122.037 -51.070  0.00  0.00     0.013 A 
ENDBRANCH   1  12
TORSDOF 4
ENDMDL
MODEL 2
REMARK VINA RESULT:      -2.5      1.782      2.614
REMARK  4 active torsions:
REMARK  status: ('A' for Active; 'I' for Inactive)
REMARK    1  A    between atoms: N_2  and  S_1 
REMARK    2  A    between atoms: C_7  and  S_1 
REMARK    3  A    between atoms: S_9  and  C_3 
REMARK    4  A    between atoms: C_13  and  S_9 
ROOT
ATOM      1  S   UNL d   1     -42.710-123.144 -50.077  0.00  0.00     0.273 S 
ATOM      2  O   UNL d   1     -43.055-123.062 -50.816  0.00  0.00    -0.200 OA
ATOM      3  O   UNL d   1     -43.397-123.606 -50.046  0.00  0.00    -0.200 OA
ENDROOT
BRANCH   1   4
ATOM      4  N   UNL d   1     -42.107-122.639 -50.344  0.00  0.00    -0.208 N 
ATOM      5  C   UNL d   1     -41.667-122.733 -51.046  0.00  0.00     0.189 A 
ATOM      6  N   UNL d   1     -41.125-122.106 -51.098  0.00  0.00    -0.219 NA
ATOM      7  C   UNL d   1     -41.231-121.627 -50.428  0.00  0.00     0.121 A 
ATOM      8  C   UNL d   1     -41.833-121.950 -49.961  0.00  0.00     0.114 A 
BRANCH   5   9
ATOM      9  S   UNL d   1     -41.757-123.349 -51.599  0.00  0.00    -0.049 SA
BRANCH   9  10
ATOM     10  C   UNL d   1     -41.178-123.471 -52.178  0.00  0.00     0.038 C 
ATOM     11  C   UNL d   1     -41.386-123.815 -52.899  0.00  0.00     0.008 C 
ENDBRANCH   9  10
ENDBRANCH   5   9
ENDBRANCH   1   4
BRANCH   1  12
ATOM     12  C   UNL d   1     -42.375-123.238 -49.326  0.00  0.00     0.104 A 
ATOM     13  C   UNL d   1     -42.721-122.866 -48.681  0.00  0.00     0.013 A 
ATOM     14  C   UNL d   1     -42.388-122.960 -47.933  0.00  0.00     0.001 A 
ATOM     15  C   UNL d   1     -41.713-123.424 -47.837  0.00  0.00     0.000 A 
ATOM     16  C   UNL d   1     -41.370-123.794 -48.486  0.00  0.00     0.001 A 
ATOM     17  C   UNL d   1     -41.708-123.698 -49.237  0.00  0.00     0.013 A 
ENDBRANCH   1  12
TORSDOF 4
ENDMDL
MODEL 3
REMARK VINA RESULT:      -1.3      1.713      3.474
REMARK  4 active torsions:
REMARK  status: ('A' for Active; 'I' for Inactive)
REMARK    1  A    between atoms: N_2  and  S_1 
REMARK    2  A    between atoms: C_7  and  S_1 
REMARK    3  A    between atoms: S_9  and  C_3 
REMARK    4  A    between atoms: C_13  and  S_9 
ROOT
ATOM      1  S   UNL d   1     -41.692-122.280 -50.470  0.00  0.00     0.273 S 
ATOM      2  O   UNL d   1     -41.808-121.882 -49.762  0.00  0.00    -0.200 OA
ATOM      3  O   UNL d   1     -41.123-121.677 -50.465  0.00  0.00    -0.200 OA
ENDROOT
BRANCH   1   4
ATOM      4  N   UNL d   1     -42.319-122.778 -50.250  0.00  0.00    -0.208 N 
ATOM      5  C   UNL d   1     -42.359-123.234 -49.553  0.00  0.00     0.189 A 
ATOM      6  N   UNL d   1     -43.078-123.648 -49.554  0.00  0.00    -0.219 NA
ATOM      7  C   UNL d   1     -43.482-123.447 -50.252  0.00  0.00     0.121 A 
ATOM      8  C   UNL d   1     -43.020-122.913 -50.683  0.00  0.00     0.114 A 
BRANCH   5   9
ATOM      9  S   UNL d   1     -41.776-123.267 -48.958  0.00  0.00    -0.049 SA
BRANCH   9  10
ATOM     10  C   UNL d   1     -41.986-123.481 -48.187  0.00  0.00     0.038 C 
ATOM     11  C   UNL d   1     -41.402-123.723 -47.656  0.00  0.00     0.008 C 
ENDBRANCH   9  10
ENDBRANCH   5   9
ENDBRANCH   1   4
BRANCH   1  12
ATOM     12  C   UNL d   1     -41.561-122.669 -51.189  0.00  0.00     0.104 A 
ATOM     13  C   UNL d   1     -41.253-123.431 -51.184  0.00  0.00     0.013 A 
ATOM     14  C   UNL d   1     -41.123-123.817 -51.900  0.00  0.00     0.001 A 
ATOM     15  C   UNL d   1     -41.300-123.441 -52.612  0.00  0.00     0.000 A 
ATOM     16  C   UNL d   1     -41.608-122.679 -52.611  0.00  0.00     0.001 A 
ATOM     17  C   UNL d   1     -41.738-122.292 -51.889  0.00  0.00     0.013 A 
ENDBRANCH   1  12
TORSDOF 4
ENDMDL
MODEL 4
REMARK VINA RESULT:      -1.2      0.745      1.011
REMARK  4 active torsions:
REMARK  status: ('A' for Active; 'I' for Inactive)
REMARK    1  A    between atoms: N_2  and  S_1 
REMARK    2  A    between atoms: C_7  and  S_1 
REMARK    3  A    between atoms: S_9  and  C_3 
REMARK    4  A    between atoms: C_13  and  S_9 
ROOT
ATOM      1  S   UNL d   1     -41.758-121.816 -52.557  0.00  0.00     0.273 S 
ATOM      2  O   UNL d   1     -41.752-121.461 -53.296  0.00  0.00    -0.200 OA
ATOM      3  O   UNL d   1     -41.959-121.024 -52.417  0.00  0.00    -0.200 OA
ENDROOT
BRANCH   1   4
ATOM      4  N   UNL d   1     -41.547-122.524 -52.937  0.00  0.00    -0.208 N 
ATOM      5  C   UNL d   1     -41.587-122.668 -53.757  0.00  0.00     0.189 A 
ATOM      6  N   UNL d   1     -41.326-123.444 -53.897  0.00  0.00    -0.219 NA
ATOM      7  C   UNL d   1     -41.125-123.777 -53.163  0.00  0.00     0.121 A 
ATOM      8  C   UNL d   1     -41.259-123.216 -52.570  0.00  0.00     0.114 A 
BRANCH   5   9
ATOM      9  S   UNL d   1     -41.846-122.127 -54.336  0.00  0.00    -0.049 SA
BRANCH   9  10
ATOM     10  C   UNL d   1     -42.178-122.405 -55.041  0.00  0.00     0.038 C 
ATOM     11  C   UNL d   1     -42.055-121.989 -55.743  0.00  0.00     0.008 C 
ENDBRANCH   9  10
ENDBRANCH   5   9
ENDBRANCH   1   4
BRANCH   1  12
ATOM     12  C   UNL d   1     -41.770-122.158 -51.803  0.00  0.00     0.104 A 
ATOM     13  C   UNL d   1     -42.434-122.574 -51.560  0.00  0.00     0.013 A 
ATOM     14  C   UNL d   1     -42.445-122.915 -50.809  0.00  0.00     0.001 A 
ATOM     15  C   UNL d   1     -41.793-122.836 -50.310  0.00  0.00     0.000 A 
ATOM     16  C   UNL d   1     -41.131-122.419 -50.559  0.00  0.00     0.001 A 
ATOM     17  C   UNL d   1     -41.123-122.077 -51.315  0.00  0.00     0.013 A 
ENDBRANCH   1  12
TORSDOF 4
ENDMDL
