MODEL 1
REMARK VINA RESULT:      -1.7      0.000      0.000
REMARK  3 active torsions:
REMARK  status: ('A' for Active; 'I' for Inactive)
REMARK    1  A    between atoms: N_8  and  C_1 
REMARK    2  A    between atoms: N_7  and  C_2 
REMARK    3  A    between atoms: C_11  and  N_8 
ROOT
ATOM      1  C   UNL d   1      58.679  -1.100  29.657  0.00  0.00     0.139 A 
ATOM      2  C   UNL d   1      59.010  -0.405  29.944  0.00  0.00     0.124 A 
ATOM      3  C   UNL d   1      58.696  -0.019  30.616  0.00  0.00     0.213 A 
ATOM      4  C   UNL d   1      58.023  -1.432  30.034  0.00  0.00     0.215 A 
ATOM      5  C   UNL d   1      58.036  -0.368  30.980  0.00  0.00     0.044 A 
ATOM      6  C   UNL d   1      57.705  -1.063  30.694  0.00  0.00     0.044 A 
ATOM      7  O   UNL d   1      59.030   0.682  30.905  0.00  0.00    -0.285 OA
ATOM      8  O   UNL d   1      57.689  -2.133  29.744  0.00  0.00    -0.285 OA
ATOM      9  C   UNL d   1      57.721   0.017  31.653  0.00  0.00     0.003 A 
ATOM     10  C   UNL d   1      57.048  -1.395  31.071  0.00  0.00     0.003 A 
ATOM     11  C   UNL d   1      57.060  -0.332  32.020  0.00  0.00     0.000 A 
ATOM     12  C   UNL d   1      56.729  -1.026  31.734  0.00  0.00     0.000 A 
ENDROOT
BRANCH   1  13
ATOM     13  N   UNL d   1      59.016  -1.469  28.977  0.00  0.00    -0.241 NA
BRANCH  13  14
ATOM     14  C   UNL d   1      59.233  -2.268  29.014  0.00  0.00     0.082 A 
ATOM     15  C   UNL d   1      59.793  -2.517  29.566  0.00  0.00     0.019 A 
ATOM     16  C   UNL d   1      60.009  -3.312  29.602  0.00  0.00     0.002 A 
ATOM     17  C   UNL d   1      59.662  -3.847  29.086  0.00  0.00     0.000 A 
ATOM     18  C   UNL d   1      59.109  -3.606  28.540  0.00  0.00     0.002 A 
ATOM     19  C   UNL d   1      58.893  -2.810  28.504  0.00  0.00     0.019 A 
ENDBRANCH  13  14
ENDBRANCH   1  13
BRANCH   2  20
ATOM     20  N   UNL d   1      59.675  -0.056  29.573  0.00  0.00    -0.300 N 
ATOM     21  C   UNL d   1      60.427  -0.090  29.921  0.00  0.00     0.080 A 
ATOM     22  C   UNL d   1      61.069   0.257  29.544  0.00  0.00     0.019 A 
ATOM     23  C   UNL d   1      60.974   0.648  28.809  0.00  0.00     0.003 A 
ATOM     24  C   UNL d   1      60.222   0.681  28.461  0.00  0.00     0.019 A 
ATOM     25  C   UNL d   1      59.551   0.325  28.843  0.00  0.00     0.080 A 
ENDBRANCH   2  20
TORSDOF 3
ENDMDL
MODEL 2
REMARK VINA RESULT:      -0.5      1.002      3.117
REMARK  3 active torsions:
REMARK  status: ('A' for Active; 'I' for Inactive)
REMARK    1  A    between atoms: N_8  and  C_1 
REMARK    2  A    between atoms: N_7  and  C_2 
REMARK    3  A    between atoms: C_11  and  N_8 
ROOT
ATOM      1  C   UNL d   1      58.955  -1.374  29.151  0.00  0.00     0.139 A 
ATOM      2  C   UNL d   1      59.774  -1.387  29.097  0.00  0.00     0.124 A 
ATOM      3  C   UNL d   1      60.187  -2.095  28.934  0.00  0.00     0.213 A 
ATOM      4  C   UNL d   1      58.522  -2.069  29.044  0.00  0.00     0.215 A 
ATOM      5  C   UNL d   1      59.734  -2.784  28.830  0.00  0.00     0.044 A 
ATOM      6  C   UNL d   1      58.915  -2.771  28.884  0.00  0.00     0.044 A 
ATOM      7  O   UNL d   1      61.014  -2.108  28.879  0.00  0.00    -0.285 OA
ATOM      8  O   UNL d   1      57.695  -2.056  29.099  0.00  0.00    -0.285 OA
ATOM      9  C   UNL d   1      60.147  -3.494  28.666  0.00  0.00     0.003 A 
ATOM     10  C   UNL d   1      58.482  -3.467  28.777  0.00  0.00     0.003 A 
ATOM     11  C   UNL d   1      59.694  -4.185  28.561  0.00  0.00     0.000 A 
ATOM     12  C   UNL d   1      58.875  -4.172  28.616  0.00  0.00     0.000 A 
ENDROOT
BRANCH   1  13
ATOM     13  N   UNL d   1      58.562  -0.646  29.317  0.00  0.00    -0.241 NA
BRANCH  13  14
ATOM     14  C   UNL d   1      58.096  -0.581  30.000  0.00  0.00     0.082 A 
ATOM     15  C   UNL d   1      57.735   0.138  30.184  0.00  0.00     0.019 A 
ATOM     16  C   UNL d   1      57.272   0.202  30.863  0.00  0.00     0.002 A 
ATOM     17  C   UNL d   1      57.177  -0.452  31.349  0.00  0.00     0.000 A 
ATOM     18  C   UNL d   1      57.531  -1.163  31.170  0.00  0.00     0.002 A 
ATOM     19  C   UNL d   1      57.995  -1.227  30.491  0.00  0.00     0.019 A 
ENDBRANCH  13  14
ENDBRANCH   1  13
BRANCH   2  20
ATOM     20  N   UNL d   1      60.227  -0.690  29.203  0.00  0.00    -0.300 N 
ATOM     21  C   UNL d   1      60.327  -0.145  28.586  0.00  0.00     0.080 A 
ATOM     22  C   UNL d   1      60.774   0.532  28.707  0.00  0.00     0.019 A 
ATOM     23  C   UNL d   1      61.133   0.682  29.449  0.00  0.00     0.003 A 
ATOM     24  C   UNL d   1      61.034   0.137  30.065  0.00  0.00     0.019 A 
ATOM     25  C   UNL d   1      60.572  -0.568  29.951  0.00  0.00     0.080 A 
ENDBRANCH   2  20
TORSDOF 3
ENDMDL
