MODEL 1
REMARK VINA RESULT:      -8.4      0.000      0.000
REMARK  1 active torsions:
REMARK  status: ('A' for Active; 'I' for Inactive)
REMARK    1  A    between atoms: C_8  and  C_3 
ROOT
ATOM      1  C   UNL d   1     -48.525  13.563  23.141  0.00  0.00     0.199 A 
ATOM      2  C   UNL d   1     -47.945  14.669  22.644  0.00  0.00     0.199 A 
ATOM      3  C   UNL d   1     -48.666  14.327  22.878  0.00  0.00     0.078 A 
ATOM      4  C   UNL d   1     -47.720  13.400  23.081  0.00  0.00     0.042 A 
ATOM      5  C   UNL d   1     -47.360  14.086  22.774  0.00  0.00     0.042 A 
ATOM      6  O   UNL d   1     -47.836  15.455  22.337  0.00  0.00    -0.286 OA
ATOM      7  O   UNL d   1     -49.114  13.019  23.429  0.00  0.00    -0.286 OA
ATOM      8  C   UNL d   1     -46.547  14.112  22.644  0.00  0.00     0.003 A 
ATOM      9  C   UNL d   1     -47.263  12.746  23.256  0.00  0.00     0.003 A 
ATOM     10  C   UNL d   1     -46.089  13.442  22.824  0.00  0.00     0.000 A 
ATOM     11  C   UNL d   1     -46.449  12.756  23.132  0.00  0.00     0.000 A 
ENDROOT
BRANCH   3  12
ATOM     12  C   UNL d   1     -49.412  14.678  22.858  0.00  0.00     0.009 A 
ATOM     13  C   UNL d   1     -49.637  15.190  23.464  0.00  0.00     0.021 A 
ATOM     14  C   UNL d   1     -50.376  15.538  23.444  0.00  0.00     0.099 A 
ATOM     15  N   UNL d   1     -50.912  15.403  22.843  0.00  0.00    -0.242 NA
ATOM     16  C   UNL d   1     -50.665  14.877  22.231  0.00  0.00     0.099 A 
ATOM     17  C   UNL d   1     -49.919  14.525  22.251  0.00  0.00     0.021 A 
ENDBRANCH   3  12
TORSDOF 1
ENDMDL
MODEL 2
REMARK VINA RESULT:      -8.2      1.757      3.405
REMARK  1 active torsions:
REMARK  status: ('A' for Active; 'I' for Inactive)
REMARK    1  A    between atoms: C_8  and  C_3 
ROOT
ATOM      1  C   UNL d   1     -48.721  12.704  22.104  0.00  0.00     0.199 A 
ATOM      2  C   UNL d   1     -48.665  13.926  22.661  0.00  0.00     0.199 A 
ATOM      3  C   UNL d   1     -48.245  13.221  22.527  0.00  0.00     0.078 A 
ATOM      4  C   UNL d   1     -49.448  13.063  21.959  0.00  0.00     0.042 A 
ATOM      5  C   UNL d   1     -49.413  13.820  22.305  0.00  0.00     0.042 A 
ATOM      6  O   UNL d   1     -48.380  14.611  23.079  0.00  0.00    -0.286 OA
ATOM      7  O   UNL d   1     -48.504  11.920  21.852  0.00  0.00    -0.286 OA
ATOM      8  C   UNL d   1     -50.058  14.333  22.261  0.00  0.00     0.003 A 
ATOM      9  C   UNL d   1     -50.127  12.824  21.573  0.00  0.00     0.003 A 
ATOM     10  C   UNL d   1     -50.745  14.082  21.866  0.00  0.00     0.000 A 
ATOM     11  C   UNL d   1     -50.780  13.325  21.521  0.00  0.00     0.000 A 
ENDROOT
BRANCH   3  12
ATOM     12  C   UNL d   1     -47.477  13.047  22.770  0.00  0.00     0.009 A 
ATOM     13  C   UNL d   1     -47.357  12.591  23.447  0.00  0.00     0.021 A 
ATOM     14  C   UNL d   1     -46.595  12.419  23.687  0.00  0.00     0.099 A 
ATOM     15  N   UNL d   1     -45.935  12.681  23.284  0.00  0.00    -0.242 NA
ATOM     16  C   UNL d   1     -46.075  13.146  22.595  0.00  0.00     0.099 A 
ATOM     17  C   UNL d   1     -46.845  13.320  22.351  0.00  0.00     0.021 A 
ENDBRANCH   3  12
TORSDOF 1
ENDMDL
MODEL 3
REMARK VINA RESULT:      -6.7      1.545      2.093
REMARK  1 active torsions:
REMARK  status: ('A' for Active; 'I' for Inactive)
REMARK    1  A    between atoms: C_8  and  C_3 
ROOT
ATOM      1  C   UNL d   1     -48.358  13.654  22.948  0.00  0.00     0.199 A 
ATOM      2  C   UNL d   1     -48.001  12.358  22.965  0.00  0.00     0.199 A 
ATOM      3  C   UNL d   1     -48.644  12.885  22.961  0.00  0.00     0.078 A 
ATOM      4  C   UNL d   1     -47.535  13.636  22.942  0.00  0.00     0.042 A 
ATOM      5  C   UNL d   1     -47.313  12.833  22.952  0.00  0.00     0.042 A 
ATOM      6  O   UNL d   1     -48.045  11.508  22.978  0.00  0.00    -0.286 OA
ATOM      7  O   UNL d   1     -48.832  14.361  22.941  0.00  0.00    -0.286 OA
ATOM      8  C   UNL d   1     -46.518  12.616  22.950  0.00  0.00     0.003 A 
ATOM      9  C   UNL d   1     -46.959  14.216  22.929  0.00  0.00     0.003 A 
ATOM     10  C   UNL d   1     -45.939  13.212  22.936  0.00  0.00     0.000 A 
ATOM     11  C   UNL d   1     -46.160  14.015  22.926  0.00  0.00     0.000 A 
ENDROOT
BRANCH   3  12
ATOM     12  C   UNL d   1     -49.445  12.690  22.970  0.00  0.00     0.009 A 
ATOM     13  C   UNL d   1     -49.821  12.544  23.689  0.00  0.00     0.021 A 
ATOM     14  C   UNL d   1     -50.615  12.350  23.698  0.00  0.00     0.099 A 
ATOM     15  N   UNL d   1     -51.063  12.294  23.018  0.00  0.00    -0.242 NA
ATOM     16  C   UNL d   1     -50.663  12.447  22.291  0.00  0.00     0.099 A 
ATOM     17  C   UNL d   1     -49.861  12.642  22.282  0.00  0.00     0.021 A 
ENDBRANCH   3  12
TORSDOF 1
ENDMDL
