MODEL 1
REMARK VINA RESULT:      20.4      0.000      0.000
REMARK  5 active torsions:
REMARK  status: ('A' for Active; 'I' for Inactive)
REMARK    1  A    between atoms: N_2  and  C_7 
REMARK    2  A    between atoms: N_8  and  C_3 
REMARK    3  A    between atoms: C_11  and  C_4 
REMARK    4  A    between atoms: N_9  and  N_8 
REMARK    5  A    between atoms: C_17  and  N_9 
ROOT
ATOM      1  N   UNL d   1     -54.715-101.546 -40.169  0.00  0.00    -0.219 NA
ATOM      2  C   UNL d   1     -54.724-101.857 -40.938  0.00  0.00     0.215 A 
ATOM      3  C   UNL d   1     -54.736-102.196 -39.634  0.00  0.00     0.090 A 
ATOM      4  S   UNL d   1     -54.750-102.668 -40.879  0.00  0.00    -0.045 SA
ATOM      5  C   UNL d   1     -54.757-102.880 -40.076  0.00  0.00     0.058 A 
ENDROOT
BRANCH   3   6
ATOM      6  C   UNL d   1     -54.734-102.105 -38.804  0.00  0.00     0.018 A 
ATOM      7  C   UNL d   1     -54.738-102.765 -38.319  0.00  0.00     0.003 A 
ATOM      8  C   UNL d   1     -54.736-102.687 -37.517  0.00  0.00     0.024 A 
ATOM      9  C   UNL d   1     -54.730-101.927 -37.178  0.00  0.00     0.127 A 
ATOM     10  C   UNL d   1     -54.725-101.272 -37.654  0.00  0.00     0.024 A 
ATOM     11  C   UNL d   1     -54.727-101.358 -38.494  0.00  0.00     0.003 A 
BRANCH   9  12
ATOM     12  N   UNL d   1     -54.728-101.832 -36.370  0.00  0.00    -0.114 N 
ATOM     13  O   UNL d   1     -54.740-101.109 -35.984  0.00  0.00    -0.532 OA
ATOM     14  O   UNL d   1     -54.713-102.451 -35.855  0.00  0.00    -0.532 OA
ENDBRANCH   9  12
ENDBRANCH   3   6
BRANCH   2  15
ATOM     15  N   UNL d   1     -54.711-101.442 -41.669  0.00  0.00    -0.122 NA
BRANCH  15  16
ATOM     16  N   UNL d   1     -54.992-101.826 -42.350  0.00  0.00    -0.146 NA
BRANCH  16  17
ATOM     17  C   UNL d   1     -54.897-101.446 -43.094  0.00  0.00     0.103 C 
ATOM     18  C   UNL d   1     -54.990-101.893 -43.785  0.00  0.00     0.022 C 
ATOM     19  C   UNL d   1     -54.715-100.642 -43.132  0.00  0.00     0.022 C 
ENDBRANCH  16  17
ENDBRANCH  15  16
ENDBRANCH   2  15
TORSDOF 5
ENDMDL
