MODEL 1
REMARK VINA RESULT:      -2.4      0.000      0.000
REMARK  5 active torsions:
REMARK  status: ('A' for Active; 'I' for Inactive)
REMARK    1  A    between atoms: C_2  and  S_1 
REMARK    2  A    between atoms: N_3  and  S_1 
REMARK    3  A    between atoms: C_10  and  N_3 
REMARK    4  A    between atoms: C_9  and  C_5 
REMARK    5  A    between atoms: O_14  and  C_8 
ROOT
ATOM      1  C   UNL d   1     -41.566-122.161 -51.927  0.00  0.00     0.127 A 
ATOM      2  C   UNL d   1     -41.900-122.761 -51.470  0.00  0.00     0.011 A 
ATOM      3  C   UNL d   1     -42.121-122.611 -50.691  0.00  0.00    -0.022 A 
ATOM      4  C   UNL d   1     -41.457-121.417 -51.601  0.00  0.00     0.106 A 
ATOM      5  C   UNL d   1     -42.009-121.862 -50.370  0.00  0.00    -0.002 A 
ATOM      6  C   UNL d   1     -41.675-121.262 -50.828  0.00  0.00     0.025 A 
ENDROOT
BRANCH   1   7
ATOM      7  S   UNL d   1     -41.348-122.317 -52.701  0.00  0.00     0.287 S 
ATOM      8  O   UNL d   1     -41.130-123.080 -52.479  0.00  0.00    -0.198 OA
ATOM      9  O   UNL d   1     -41.562-121.562 -52.926  0.00  0.00    -0.198 OA
BRANCH   7  10
ATOM     10  N   UNL d   1     -41.126-122.480 -53.478  0.00  0.00    -0.157 NA
BRANCH  10  11
ATOM     11  C   UNL d   1     -41.700-122.523 -54.066  0.00  0.00     0.113 A 
ATOM     12  C   UNL d   1     -41.923-123.247 -54.370  0.00  0.00     0.119 A 
ATOM     13  N   UNL d   1     -42.497-123.288 -54.959  0.00  0.00    -0.241 NA
ATOM     14  C   UNL d   1     -42.851-122.594 -55.246  0.00  0.00     0.099 A 
ATOM     15  C   UNL d   1     -42.620-121.866 -54.934  0.00  0.00     0.022 A 
ATOM     16  C   UNL d   1     -42.046-121.824 -54.346  0.00  0.00     0.023 A 
ENDBRANCH  10  11
ENDBRANCH   7  10
ENDBRANCH   1   7
BRANCH   4  17
ATOM     17  O   UNL d   1     -41.123-120.817 -52.059  0.00  0.00    -0.327 OA
ATOM     18  C   UNL d   1     -41.252-120.028 -51.862  0.00  0.00     0.181 C 
ENDBRANCH   4  17
BRANCH   3  19
ATOM     19  C   UNL d   1     -42.455-123.211 -50.234  0.00  0.00     0.019 C 
ATOM     20  C   UNL d   1     -42.789-123.811 -49.776  0.00  0.00     0.004 C 
ATOM     21  C   UNL d   1     -41.708-123.545 -50.128  0.00  0.00     0.004 C 
ATOM     22  C   UNL d   1     -43.202-122.876 -50.340  0.00  0.00     0.004 C 
ENDBRANCH   3  19
TORSDOF 5
ENDMDL
MODEL 2
REMARK VINA RESULT:      -2.1      1.403      3.573
REMARK  5 active torsions:
REMARK  status: ('A' for Active; 'I' for Inactive)
REMARK    1  A    between atoms: C_2  and  S_1 
REMARK    2  A    between atoms: N_3  and  S_1 
REMARK    3  A    between atoms: C_10  and  N_3 
REMARK    4  A    between atoms: C_9  and  C_5 
REMARK    5  A    between atoms: O_14  and  C_8 
ROOT
ATOM      1  C   UNL d   1     -41.521-122.553 -52.152  0.00  0.00     0.127 A 
ATOM      2  C   UNL d   1     -41.737-122.943 -52.847  0.00  0.00     0.011 A 
ATOM      3  C   UNL d   1     -41.779-122.528 -53.556  0.00  0.00    -0.022 A 
ATOM      4  C   UNL d   1     -41.350-121.752 -52.175  0.00  0.00     0.106 A 
ATOM      5  C   UNL d   1     -41.606-121.724 -53.572  0.00  0.00    -0.002 A 
ATOM      6  C   UNL d   1     -41.390-121.334 -52.878  0.00  0.00     0.025 A 
ENDROOT
BRANCH   1   7
ATOM      7  S   UNL d   1     -41.481-122.972 -51.450  0.00  0.00     0.287 S 
ATOM      8  O   UNL d   1     -41.123-123.596 -51.850  0.00  0.00    -0.198 OA
ATOM      9  O   UNL d   1     -41.835-122.356 -51.049  0.00  0.00    -0.198 OA
BRANCH   7  10
ATOM     10  N   UNL d   1     -41.437-123.399 -50.746  0.00  0.00    -0.157 NA
BRANCH  10  11
ATOM     11  C   UNL d   1     -42.094-123.441 -50.252  0.00  0.00     0.113 A 
ATOM     12  C   UNL d   1     -42.811-123.698 -50.544  0.00  0.00     0.119 A 
ATOM     13  N   UNL d   1     -43.468-123.740 -50.049  0.00  0.00    -0.241 NA
ATOM     14  C   UNL d   1     -43.402-123.520 -49.250  0.00  0.00     0.099 A 
ATOM     15  C   UNL d   1     -42.673-123.261 -48.963  0.00  0.00     0.022 A 
ATOM     16  C   UNL d   1     -42.018-123.219 -49.457  0.00  0.00     0.023 A 
ENDBRANCH  10  11
ENDBRANCH   7  10
ENDBRANCH   1   7
BRANCH   4  17
ATOM     17  O   UNL d   1     -41.134-121.363 -51.481  0.00  0.00    -0.327 OA
ATOM     18  C   UNL d   1     -41.123-120.539 -51.456  0.00  0.00     0.181 C 
ENDBRANCH   4  17
BRANCH   3  19
ATOM     19  C   UNL d   1     -41.995-122.917 -54.251  0.00  0.00     0.019 C 
ATOM     20  C   UNL d   1     -42.211-123.307 -54.945  0.00  0.00     0.004 C 
ATOM     21  C   UNL d   1     -42.538-122.319 -54.418  0.00  0.00     0.004 C 
ATOM     22  C   UNL d   1     -41.452-123.516 -54.083  0.00  0.00     0.004 C 
ENDBRANCH   3  19
TORSDOF 5
ENDMDL
