MODEL 1
REMARK VINA RESULT:      34.5      0.000      0.000
REMARK  7 active torsions:
REMARK  status: ('A' for Active; 'I' for Inactive)
REMARK    1  A    between atoms: S_3  and  N_12 
REMARK    2  A    between atoms: C_16  and  S_3 
REMARK    3  A    between atoms: C_17  and  C_7 
REMARK    4  A    between atoms: O_19  and  C_8 
REMARK    5  A    between atoms: O_20  and  C_11 
REMARK    6  A    between atoms: N_12  and  C_18 
REMARK    7  A    between atoms: C_18  and  C_17 
ROOT
ATOM      1  N   UNL d   1     -52.575  25.349  33.315  0.00  0.00    -0.206 NA
ATOM      2  C   UNL d   1     -51.349  24.619  33.317  0.00  0.00     0.042 A 
ATOM      3  C   UNL d   1     -52.174  24.631  33.316  0.00  0.00     0.109 A 
ATOM      4  C   UNL d   1     -50.922  25.325  33.317  0.00  0.00     0.008 A 
ATOM      5  C   UNL d   1     -52.153  26.064  33.315  0.00  0.00     0.279 A 
ATOM      6  C   UNL d   1     -51.328  26.052  33.316  0.00  0.00     0.060 A 
ATOM      7  C   UNL d   1     -50.947  23.900  33.318  0.00  0.00     0.096 A 
ATOM      8  C   UNL d   1     -52.597  23.925  33.316  0.00  0.00     0.112 A 
ATOM      9  O   UNL d   1     -52.554  26.783  33.314  0.00  0.00    -0.265 OA
ATOM     10  C   UNL d   1     -51.370  23.194  33.318  0.00  0.00     0.026 A 
ATOM     11  C   UNL d   1     -52.195  23.207  33.317  0.00  0.00     0.028 A 
ENDROOT
BRANCH   6  12
ATOM     12  C   UNL d   1     -50.904  26.763  33.316  0.00  0.00     0.026 C 
BRANCH  12  13
ATOM     13  C   UNL d   1     -50.276  26.867  33.838  0.00  0.00     0.112 C 
BRANCH  13  14
ATOM     14  N   UNL d   1     -49.923  27.608  33.911  0.00  0.00    -0.157 NA
BRANCH  14  15
ATOM     15  S   UNL d   1     -49.411  27.751  34.544  0.00  0.00     0.286 S 
ATOM     16  O   UNL d   1     -48.965  27.715  35.238  0.00  0.00    -0.198 OA
ATOM     17  O   UNL d   1     -49.742  27.013  34.704  0.00  0.00    -0.198 OA
BRANCH  15  18
ATOM     18  C   UNL d   1     -49.089  28.493  34.366  0.00  0.00     0.117 C 
ATOM     19  C   UNL d   1     -48.307  28.664  34.560  0.00  0.00     0.014 C 
ENDBRANCH  15  18
ENDBRANCH  14  15
ENDBRANCH  13  14
ENDBRANCH  12  13
ENDBRANCH   6  12
BRANCH   7  20
ATOM     20  O   UNL d   1     -50.130  23.888  33.319  0.00  0.00    -0.328 OA
ATOM     21  C   UNL d   1     -49.729  23.188  33.503  0.00  0.00     0.181 C 
ENDBRANCH   7  20
BRANCH   8  22
ATOM     22  O   UNL d   1     -53.422  23.937  33.315  0.00  0.00    -0.327 OA
ATOM     23  C   UNL d   1     -53.842  23.452  33.843  0.00  0.00     0.181 C 
ENDBRANCH   8  22
TORSDOF 7
ENDMDL
