MODEL 1
REMARK VINA RESULT:      32.0      0.000      0.000
REMARK  2 active torsions:
REMARK  status: ('A' for Active; 'I' for Inactive)
REMARK    1  A    between atoms: C_10  and  C_3 
REMARK    2  A    between atoms: O_20  and  C_16 
ROOT
ATOM      1  C   UNL d   1      58.683  49.697  51.009  0.00  0.00     0.203 A 
ATOM      2  C   UNL d   1      58.015  49.700  50.517  0.00  0.00     0.101 A 
ATOM      3  C   UNL d   1      59.450  49.699  50.683  0.00  0.00     0.064 A 
ATOM      4  C   UNL d   1      58.119  49.704  49.686  0.00  0.00     0.109 A 
ATOM      5  C   UNL d   1      59.546  49.704  49.851  0.00  0.00     0.126 A 
ATOM      6  C   UNL d   1      57.260  49.698  50.841  0.00  0.00     0.204 A 
ATOM      7  O   UNL d   1      58.879  49.706  49.354  0.00  0.00    -0.305 OA
ATOM      8  C   UNL d   1      57.450  49.707  49.194  0.00  0.00     0.067 A 
ATOM      9  C   UNL d   1      56.600  49.700  50.350  0.00  0.00     0.084 A 
ATOM     10  O   UNL d   1      58.588  49.692  51.829  0.00  0.00    -0.286 OA
ATOM     11  C   UNL d   1      56.695  49.705  49.529  0.00  0.00     0.201 A 
ATOM     12  O   UNL d   1      57.165  49.693  51.660  0.00  0.00    -0.286 OA
ATOM     13  O   UNL d   1      56.034  49.708  49.038  0.00  0.00    -0.286 OA
ENDROOT
BRANCH   3  14
ATOM     14  C   UNL d   1      60.111  49.696  51.174  0.00  0.00     0.005 A 
ATOM     15  C   UNL d   1      60.009  49.707  51.993  0.00  0.00     0.002 A 
ATOM     16  C   UNL d   1      60.669  49.704  52.485  0.00  0.00     0.024 A 
ATOM     17  C   UNL d   1      61.423  49.691  52.165  0.00  0.00     0.094 A 
ATOM     18  C   UNL d   1      61.519  49.681  51.337  0.00  0.00     0.024 A 
ATOM     19  C   UNL d   1      60.858  49.684  50.846  0.00  0.00     0.002 A 
BRANCH  17  20
ATOM     20  O   UNL d   1      62.083  49.689  52.656  0.00  0.00    -0.328 OA
ATOM     21  C   UNL d   1      61.990  49.706  53.481  0.00  0.00     0.181 C 
ENDBRANCH  17  20
ENDBRANCH   3  14
TORSDOF 2
ENDMDL
