MODEL 1
REMARK VINA RESULT:      52.9      0.000      0.000
REMARK  7 active torsions:
REMARK  status: ('A' for Active; 'I' for Inactive)
REMARK    1  A    between atoms: C_2  and  S_1 
REMARK    2  A    between atoms: N_3  and  S_1 
REMARK    3  A    between atoms: C_15  and  N_3 
REMARK    4  A    between atoms: C_4  and  C_9 
REMARK       I    between atoms: N_5  and  C_4 
REMARK    5  A    between atoms: C_16  and  N_5 
REMARK    6  A    between atoms: C_18  and  C_15 
REMARK    7  A    between atoms: C_17  and  C_16 
ROOT
ATOM      1  C   UNL d   1     -54.997-101.392 -41.836  0.00  0.00     0.058 A 
ATOM      2  C   UNL d   1     -55.120-101.365 -42.665  0.00  0.00     0.005 A 
ATOM      3  C   UNL d   1     -54.793-100.700 -41.435  0.00  0.00     0.005 A 
ATOM      4  C   UNL d   1     -54.835 -99.969 -42.663  0.00  0.00     0.020 A 
ATOM      5  C   UNL d   1     -55.038-100.657 -43.065  0.00  0.00     0.002 A 
ATOM      6  C   UNL d   1     -54.711 -99.989 -41.844  0.00  0.00     0.002 A 
ENDROOT
BRANCH   4   7
ATOM      7  C   UNL d   1     -54.752 -99.251 -43.077  0.00  0.00     0.112 C 
BRANCH   7   8
ATOM      8  N   UNL d   1     -54.896 -99.222 -43.891  0.00  0.00    -0.157 NA
BRANCH   8   9
ATOM      9  S   UNL d   1     -55.671 -99.104 -44.174  0.00  0.00     0.285 S 
ATOM     10  O   UNL d   1     -55.363 -98.842 -44.903  0.00  0.00    -0.198 OA
ATOM     11  O   UNL d   1     -55.969 -99.366 -43.445  0.00  0.00    -0.198 OA
BRANCH   9  12
ATOM     12  C   UNL d   1     -56.444 -98.988 -44.453  0.00  0.00     0.106 A 
ATOM     13  C   UNL d   1     -57.079 -98.978 -43.931  0.00  0.00     0.024 A 
ATOM     14  C   UNL d   1     -57.846 -98.862 -44.211  0.00  0.00     0.059 A 
ATOM     15 CL   UNL d   1     -58.487 -98.853 -43.677  0.00  0.00    -0.082 Cl
ATOM     16  C   UNL d   1     -57.978 -98.756 -45.014  0.00  0.00     0.011 A 
ATOM     17  C   UNL d   1     -57.343 -98.766 -45.537  0.00  0.00     0.002 A 
ATOM     18  C   UNL d   1     -56.577 -98.882 -45.256  0.00  0.00     0.013 A 
ENDBRANCH   9  12
ENDBRANCH   8   9
ENDBRANCH   7   8
ENDBRANCH   4   7
BRANCH   1  19
ATOM     19  C   UNL d   1     -55.078-102.108 -41.418  0.00  0.00     0.279 C 
ATOM     20  N   UNL d   1     -55.273-102.095 -40.620  0.00  0.00    -0.205 NA
ATOM     21  O   UNL d   1     -54.962-102.836 -41.809  0.00  0.00    -0.265 OA
BRANCH  20  22
ATOM     22  C   UNL d   1     -55.355-102.806 -40.200  0.00  0.00     0.121 C 
BRANCH  22  23
ATOM     23  C   UNL d   1     -55.402-102.786 -39.374  0.00  0.00     0.101 A 
ATOM     24  N   UNL d   1     -54.714-102.878 -38.928  0.00  0.00    -0.242 NA
ATOM     25  C   UNL d   1     -54.768-102.857 -38.107  0.00  0.00     0.099 A 
ATOM     26  C   UNL d   1     -55.492-102.748 -37.733  0.00  0.00     0.021 A 
ATOM     27  C   UNL d   1     -56.178-102.657 -38.194  0.00  0.00     0.003 A 
ATOM     28  C   UNL d   1     -56.127-102.677 -39.018  0.00  0.00     0.021 A 
ENDBRANCH  22  23
ENDBRANCH  20  22
ENDBRANCH   1  19
TORSDOF 7
ENDMDL
