MODEL 1
REMARK VINA RESULT:      -4.3      0.000      0.000
REMARK  7 active torsions:
REMARK  status: ('A' for Active; 'I' for Inactive)
REMARK    1  A    between atoms: N_3  and  C_2 
REMARK       I    between atoms: C_6  and  N_3 
REMARK    2  A    between atoms: C_11  and  C_4 
REMARK    3  A    between atoms: C_5  and  C_6 
REMARK    4  A    between atoms: C_15  and  C_11 
REMARK    5  A    between atoms: C_18  and  C_12 
REMARK    6  A    between atoms: O_17  and  C_18 
REMARK    7  A    between atoms: C_19  and  O_17 
ROOT
ATOM      1  C   UNL d   1      58.032  -0.267  29.954  0.00  0.00     0.158 A 
ATOM      2  O   UNL d   1      58.304  -1.041  29.893  0.00  0.00    -0.300 OA
ATOM      3  C   UNL d   1      58.279   0.143  29.284  0.00  0.00     0.032 A 
ATOM      4  C   UNL d   1      58.723  -1.117  29.185  0.00  0.00     0.125 A 
ATOM      5  C   UNL d   1      58.706  -0.382  28.809  0.00  0.00     0.029 A 
ENDROOT
BRANCH   1   6
ATOM      6  C   UNL d   1      57.586   0.048  30.578  0.00  0.00     0.304 C 
ATOM      7  N   UNL d   1      57.716  -0.215  31.350  0.00  0.00    -0.180 NA
ATOM      8  O   UNL d   1      57.014   0.623  30.425  0.00  0.00    -0.263 OA
BRANCH   7   9
ATOM      9  C   UNL d   1      57.276   0.096  31.970  0.00  0.00     0.216 A 
ATOM     10  N   UNL d   1      56.437   0.104  32.028  0.00  0.00    -0.200 NA
ATOM     11  C   UNL d   1      56.243   0.461  32.725  0.00  0.00     0.175 A 
ATOM     12  N   UNL d   1      56.936   0.682  33.112  0.00  0.00    -0.187 NA
ATOM     13  S   UNL d   1      57.574   0.455  32.644  0.00  0.00     0.054 SA
BRANCH  11  14
ATOM     14  C   UNL d   1      55.480   0.590  33.010  0.00  0.00     0.082 C 
BRANCH  14  15
ATOM     15  C   UNL d   1      55.165   0.068  33.575  0.00  0.00     0.199 C 
ATOM     16  O   UNL d   1      55.181  -0.744  33.447  0.00  0.00    -0.286 OA
ATOM     17  C   UNL d   1      54.833   0.370  34.273  0.00  0.00     0.045 C 
ENDBRANCH  14  15
ENDBRANCH  11  14
ENDBRANCH   7   9
ENDBRANCH   1   6
BRANCH   4  18
ATOM     18  C   UNL d   1      59.085  -1.798  28.912  0.00  0.00     0.147 C 
BRANCH  18  19
ATOM     19  O   UNL d   1      59.695  -2.144  29.358  0.00  0.00    -0.303 OA
BRANCH  19  20
ATOM     20  C   UNL d   1      60.009  -2.871  29.132  0.00  0.00     0.100 A 
ATOM     21  C   UNL d   1      60.789  -3.056  29.328  0.00  0.00     0.025 A 
ATOM     22  C   UNL d   1      61.103  -3.778  29.104  0.00  0.00     0.002 A 
ATOM     23  C   UNL d   1      60.637  -4.324  28.679  0.00  0.00     0.000 A 
ATOM     24  C   UNL d   1      59.858  -4.132  28.487  0.00  0.00     0.002 A 
ATOM     25  C   UNL d   1      60.959  -5.053  28.455  0.00  0.00     0.000 C 
ATOM     26  C   UNL d   1      59.544  -3.406  28.712  0.00  0.00     0.025 A 
ENDBRANCH  19  20
ENDBRANCH  18  19
ENDBRANCH   4  18
TORSDOF 7
ENDMDL
