MODEL 1
REMARK VINA RESULT:     -10.0      0.000      0.000
REMARK  4 active torsions:
REMARK  status: ('A' for Active; 'I' for Inactive)
REMARK    1  A    between atoms: C_6  and  N_1 
REMARK    2  A    between atoms: C_8  and  C_2 
REMARK    3  A    between atoms: C_16  and  C_5 
REMARK    4  A    between atoms: C_7  and  C_8 
ROOT
ATOM      1  N   UNL d   1      53.531  33.954  54.053  0.00  0.00    -0.251 N 
ATOM      2  C   UNL d   1      53.507  32.792  53.402  0.00  0.00     0.101 A 
ATOM      3  C   UNL d   1      54.265  33.592  54.149  0.00  0.00     0.305 A 
ATOM      4  C   UNL d   1      54.251  32.869  53.744  0.00  0.00     0.256 A 
ATOM      5  C   UNL d   1      53.066  33.456  53.591  0.00  0.00     0.075 A 
ATOM      6  O   UNL d   1      54.908  33.895  54.576  0.00  0.00    -0.263 OA
ATOM      7  O   UNL d   1      54.877  32.335  53.702  0.00  0.00    -0.281 OA
ENDROOT
BRANCH   2   8
ATOM      8  C   UNL d   1      53.257  32.148  52.946  0.00  0.00     0.223 C 
ATOM      9  O   UNL d   1      53.051  32.262  52.154  0.00  0.00    -0.284 OA
BRANCH   8  10
ATOM     10  C   UNL d   1      53.212  31.400  53.274  0.00  0.00     0.139 A 
ATOM     11  O   UNL d   1      53.314  31.211  54.070  0.00  0.00    -0.304 OA
ATOM     12  C   UNL d   1      53.222  30.396  54.159  0.00  0.00     0.100 A 
ATOM     13  C   UNL d   1      53.264  29.911  54.817  0.00  0.00     0.025 A 
ATOM     14  C   UNL d   1      53.063  30.086  53.418  0.00  0.00     0.025 A 
ATOM     15  C   UNL d   1      53.145  29.103  54.733  0.00  0.00     0.002 A 
ATOM     16  C   UNL d   1      52.984  28.782  53.986  0.00  0.00     0.000 A 
ATOM     17  C   UNL d   1      52.945  29.279  53.334  0.00  0.00     0.002 A 
ATOM     18  C   UNL d   1      53.056  30.699  52.871  0.00  0.00     0.030 A 
ENDBRANCH   8  10
ENDBRANCH   2   8
BRANCH   5  19
ATOM     19  C   UNL d   1      52.281  33.599  53.354  0.00  0.00     0.017 A 
ATOM     20  C   UNL d   1      52.132  33.986  52.631  0.00  0.00     0.002 A 
ATOM     21  C   UNL d   1      51.353  34.132  52.388  0.00  0.00     0.000 A 
ATOM     22  C   UNL d   1      50.712  33.891  52.869  0.00  0.00     0.000 A 
ATOM     23  C   UNL d   1      50.869  33.503  53.594  0.00  0.00     0.000 A 
ATOM     24  C   UNL d   1      51.654  33.358  53.835  0.00  0.00     0.002 A 
ENDBRANCH   5  19
BRANCH   1  25
ATOM     25  C   UNL d   1      53.308  34.678  54.363  0.00  0.00     0.182 A 
ATOM     26  N   UNL d   1      53.339  35.410  53.976  0.00  0.00    -0.220 NA
ATOM     27  C   UNL d   1      53.063  35.985  54.492  0.00  0.00     0.108 A 
ATOM     28  C   UNL d   1      52.859  35.616  55.201  0.00  0.00     0.059 A 
ATOM     29  S   UNL d   1      53.010  34.809  55.121  0.00  0.00    -0.048 SA
ENDBRANCH   1  25
TORSDOF 4
ENDMDL
MODEL 2
REMARK VINA RESULT:      -9.8      1.141      2.270
REMARK  4 active torsions:
REMARK  status: ('A' for Active; 'I' for Inactive)
REMARK    1  A    between atoms: C_6  and  N_1 
REMARK    2  A    between atoms: C_8  and  C_2 
REMARK    3  A    between atoms: C_16  and  C_5 
REMARK    4  A    between atoms: C_7  and  C_8 
ROOT
ATOM      1  N   UNL d   1      52.788  33.375  53.541  0.00  0.00    -0.251 N 
ATOM      2  C   UNL d   1      53.380  32.199  53.338  0.00  0.00     0.101 A 
ATOM      3  C   UNL d   1      52.295  32.919  53.063  0.00  0.00     0.305 A 
ATOM      4  C   UNL d   1      52.663  32.187  52.936  0.00  0.00     0.256 A 
ATOM      5  C   UNL d   1      53.457  32.925  53.708  0.00  0.00     0.075 A 
ATOM      6  O   UNL d   1      51.558  33.149  52.759  0.00  0.00    -0.263 OA
ATOM      7  O   UNL d   1      52.352  31.571  52.487  0.00  0.00    -0.281 OA
ENDROOT
BRANCH   2   8
ATOM      8  C   UNL d   1      53.925  31.576  53.358  0.00  0.00     0.223 C 
ATOM      9  O   UNL d   1      54.655  31.656  52.981  0.00  0.00    -0.284 OA
BRANCH   8  10
ATOM     10  C   UNL d   1      53.744  30.880  53.750  0.00  0.00     0.139 A 
ATOM     11  O   UNL d   1      53.456  30.815  54.520  0.00  0.00    -0.304 OA
ATOM     12  C   UNL d   1      53.351  30.015  54.693  0.00  0.00     0.100 A 
ATOM     13  C   UNL d   1      53.082  29.634  55.365  0.00  0.00     0.025 A 
ATOM     14  C   UNL d   1      53.574  29.591  54.030  0.00  0.00     0.025 A 
ATOM     15  C   UNL d   1      53.037  28.814  55.375  0.00  0.00     0.002 A 
ATOM     16  C   UNL d   1      53.261  28.378  54.707  0.00  0.00     0.000 A 
ATOM     17  C   UNL d   1      53.529  28.771  54.039  0.00  0.00     0.002 A 
ATOM     18  C   UNL d   1      53.817  30.117  53.447  0.00  0.00     0.030 A 
ENDBRANCH   8  10
ENDBRANCH   2   8
BRANCH   5  19
ATOM     19  C   UNL d   1      54.104  33.165  54.174  0.00  0.00     0.017 A 
ATOM     20  C   UNL d   1      54.058  33.111  55.004  0.00  0.00     0.002 A 
ATOM     21  C   UNL d   1      54.698  33.347  55.475  0.00  0.00     0.000 A 
ATOM     22  C   UNL d   1      55.395  33.642  55.118  0.00  0.00     0.000 A 
ATOM     23  C   UNL d   1      55.435  33.693  54.283  0.00  0.00     0.000 A 
ATOM     24  C   UNL d   1      54.788  33.454  53.813  0.00  0.00     0.002 A 
ENDBRANCH   5  19
BRANCH   1  25
ATOM     25  C   UNL d   1      52.637  34.136  53.801  0.00  0.00     0.182 A 
ATOM     26  N   UNL d   1      52.316  34.351  54.534  0.00  0.00    -0.220 NA
ATOM     27  C   UNL d   1      52.260  35.170  54.558  0.00  0.00     0.108 A 
ATOM     28  C   UNL d   1      52.545  35.467  53.844  0.00  0.00     0.059 A 
ATOM     29  S   UNL d   1      52.778  34.829  53.377  0.00  0.00    -0.048 SA
ENDBRANCH   1  25
TORSDOF 4
ENDMDL
MODEL 3
REMARK VINA RESULT:      -7.6      1.613      3.893
REMARK  4 active torsions:
REMARK  status: ('A' for Active; 'I' for Inactive)
REMARK    1  A    between atoms: C_6  and  N_1 
REMARK    2  A    between atoms: C_8  and  C_2 
REMARK    3  A    between atoms: C_16  and  C_5 
REMARK    4  A    between atoms: C_7  and  C_8 
ROOT
ATOM      1  N   UNL d   1      53.256  33.926  54.030  0.00  0.00    -0.251 N 
ATOM      2  C   UNL d   1      52.419  34.138  53.015  0.00  0.00     0.101 A 
ATOM      3  C   UNL d   1      53.143  34.740  53.956  0.00  0.00     0.305 A 
ATOM      4  C   UNL d   1      52.623  34.871  53.324  0.00  0.00     0.256 A 
ATOM      5  C   UNL d   1      52.806  33.559  53.447  0.00  0.00     0.075 A 
ATOM      6  O   UNL d   1      53.489  35.327  54.429  0.00  0.00    -0.263 OA
ATOM      7  O   UNL d   1      52.366  35.611  53.066  0.00  0.00    -0.281 OA
ENDROOT
BRANCH   2   8
ATOM      8  C   UNL d   1      51.908  34.015  52.375  0.00  0.00     0.223 C 
ATOM      9  O   UNL d   1      52.186  33.641  51.694  0.00  0.00    -0.284 OA
BRANCH   8  10
ATOM     10  C   UNL d   1      51.129  34.264  52.413  0.00  0.00     0.139 A 
ATOM     11  O   UNL d   1      50.743  34.555  53.081  0.00  0.00    -0.304 OA
ATOM     12  C   UNL d   1      49.966  34.739  52.875  0.00  0.00     0.100 A 
ATOM     13  C   UNL d   1      49.344  35.043  53.310  0.00  0.00     0.025 A 
ATOM     14  C   UNL d   1      49.877  34.561  52.081  0.00  0.00     0.025 A 
ATOM     15  C   UNL d   1      48.619  35.171  52.947  0.00  0.00     0.002 A 
ATOM     16  C   UNL d   1      48.520  34.993  52.143  0.00  0.00     0.000 A 
ATOM     17  C   UNL d   1      49.152  34.689  51.717  0.00  0.00     0.002 A 
ATOM     18  C   UNL d   1      50.588  34.269  51.792  0.00  0.00     0.030 A 
ENDBRANCH   8  10
ENDBRANCH   2   8
BRANCH   5  19
ATOM     19  C   UNL d   1      52.752  32.738  53.314  0.00  0.00     0.017 A 
ATOM     20  C   UNL d   1      53.311  32.361  52.826  0.00  0.00     0.002 A 
ATOM     21  C   UNL d   1      53.263  31.545  52.690  0.00  0.00     0.000 A 
ATOM     22  C   UNL d   1      52.652  31.096  53.042  0.00  0.00     0.000 A 
ATOM     23  C   UNL d   1      52.093  31.482  53.531  0.00  0.00     0.000 A 
ATOM     24  C   UNL d   1      52.145  32.303  53.666  0.00  0.00     0.002 A 
ENDBRANCH   5  19
BRANCH   1  25
ATOM     25  C   UNL d   1      53.729  33.555  54.585  0.00  0.00     0.182 A 
ATOM     26  N   UNL d   1      53.476  33.203  55.291  0.00  0.00    -0.220 NA
ATOM     27  C   UNL d   1      54.135  32.899  55.676  0.00  0.00     0.108 A 
ATOM     28  C   UNL d   1      54.798  33.059  55.213  0.00  0.00     0.059 A 
ATOM     29  S   UNL d   1      54.548  33.464  54.539  0.00  0.00    -0.048 SA
ENDBRANCH   1  25
TORSDOF 4
ENDMDL
