MODEL 1
REMARK VINA RESULT:      -8.2      0.000      0.000
REMARK  3 active torsions:
REMARK  status: ('A' for Active; 'I' for Inactive)
REMARK    1  A    between atoms: C_2  and  C_1 
REMARK    2  A    between atoms: C_13  and  N_4 
REMARK    3  A    between atoms: C_12  and  C_15 
ROOT
ATOM      1  C   UNL d   1     -48.159  13.155  22.950  0.00  0.00     0.106 A 
ATOM      2  C   UNL d   1     -47.288  12.213  23.332  0.00  0.00     0.206 A 
ATOM      3  N   UNL d   1     -46.894  12.729  22.823  0.00  0.00    -0.281 N 
ATOM      4  N   UNL d   1     -48.072  12.470  23.415  0.00  0.00    -0.217 NA
ATOM      5  C   UNL d   1     -47.430  13.311  22.587  0.00  0.00     0.102 A 
ATOM      6  S   UNL d   1     -46.961  11.551  23.698  0.00  0.00    -0.038 SA
ENDROOT
BRANCH   1   7
ATOM      7  C   UNL d   1     -48.845  13.596  22.867  0.00  0.00     0.083 A 
ATOM      8  C   UNL d   1     -49.428  13.357  22.327  0.00  0.00     0.302 A 
ATOM      9  O   UNL d   1     -50.124  13.807  22.244  0.00  0.00    -0.273 OA
ATOM     10  O   UNL d   1     -49.321  12.677  21.872  0.00  0.00    -0.259 OA
ATOM     11  C   UNL d   1     -50.236  14.488  22.696  0.00  0.00     0.103 A 
ATOM     12  C   UNL d   1     -49.654  14.728  23.237  0.00  0.00     0.023 A 
ATOM     13  C   UNL d   1     -50.925  14.928  22.611  0.00  0.00     0.025 A 
ATOM     14  C   UNL d   1     -48.953  14.281  23.325  0.00  0.00     0.009 A 
ATOM     15  C   UNL d   1     -49.765  15.406  23.688  0.00  0.00     0.002 A 
ATOM     16  C   UNL d   1     -50.454  15.846  23.603  0.00  0.00     0.000 A 
ATOM     17  C   UNL d   1     -51.036  15.607  23.062  0.00  0.00     0.002 A 
ENDBRANCH   1   7
BRANCH   3  18
ATOM     18  C   UNL d   1     -46.111  12.672  22.596  0.00  0.00     0.066 A 
ATOM     19  C   UNL d   1     -45.764  13.276  22.141  0.00  0.00     0.018 A 
ATOM     20  C   UNL d   1     -44.976  13.221  21.910  0.00  0.00     0.008 A 
ATOM     21  C   UNL d   1     -44.524  12.560  22.132  0.00  0.00     0.065 A 
ATOM     22  C   UNL d   1     -44.868  11.964  22.582  0.00  0.00     0.008 A 
ATOM     23  C   UNL d   1     -45.659  12.019  22.814  0.00  0.00     0.018 A 
BRANCH  21  24
ATOM     24  C   UNL d   1     -43.736  12.503  21.902  0.00  0.00     0.211 C 
ATOM     25  O   UNL d   1     -43.253  11.917  22.232  0.00  0.00    -0.644 OA
ATOM     26  O   UNL d   1     -43.425  13.026  21.347  0.00  0.00    -0.644 OA
ENDBRANCH  21  24
ENDBRANCH   3  18
TORSDOF 3
ENDMDL
MODEL 2
REMARK VINA RESULT:      -7.9      1.391      5.439
REMARK  3 active torsions:
REMARK  status: ('A' for Active; 'I' for Inactive)
REMARK    1  A    between atoms: C_2  and  C_1 
REMARK    2  A    between atoms: C_13  and  N_4 
REMARK    3  A    between atoms: C_12  and  C_15 
ROOT
ATOM      1  C   UNL d   1     -46.130  12.831  22.779  0.00  0.00     0.106 A 
ATOM      2  C   UNL d   1     -46.861  13.952  22.756  0.00  0.00     0.206 A 
ATOM      3  N   UNL d   1     -47.372  13.316  22.635  0.00  0.00    -0.281 N 
ATOM      4  N   UNL d   1     -46.090  13.660  22.846  0.00  0.00    -0.217 NA
ATOM      5  C   UNL d   1     -46.923  12.624  22.649  0.00  0.00     0.102 A 
ATOM      6  S   UNL d   1     -47.076  14.747  22.783  0.00  0.00    -0.038 SA
ENDROOT
BRANCH   1   7
ATOM      7  C   UNL d   1     -45.497  12.312  22.833  0.00  0.00     0.083 A 
ATOM      8  C   UNL d   1     -44.764  12.521  22.505  0.00  0.00     0.302 A 
ATOM      9  O   UNL d   1     -44.122  11.992  22.561  0.00  0.00    -0.273 OA
ATOM     10  O   UNL d   1     -44.666  13.246  22.125  0.00  0.00    -0.259 OA
ATOM     11  C   UNL d   1     -44.213  11.264  22.940  0.00  0.00     0.103 A 
ATOM     12  C   UNL d   1     -44.946  11.056  23.268  0.00  0.00     0.023 A 
ATOM     13  C   UNL d   1     -43.576  10.747  22.992  0.00  0.00     0.025 A 
ATOM     14  C   UNL d   1     -45.594  11.582  23.215  0.00  0.00     0.009 A 
ATOM     15  C   UNL d   1     -45.038  10.332  23.645  0.00  0.00     0.002 A 
ATOM     16  C   UNL d   1     -44.401   9.814  23.698  0.00  0.00     0.000 A 
ATOM     17  C   UNL d   1     -43.668  10.022  23.370  0.00  0.00     0.002 A 
ENDBRANCH   1   7
BRANCH   3  18
ATOM     18  C   UNL d   1     -48.180  13.366  22.521  0.00  0.00     0.066 A 
ATOM     19  C   UNL d   1     -48.487  13.479  21.756  0.00  0.00     0.018 A 
ATOM     20  C   UNL d   1     -49.300  13.530  21.638  0.00  0.00     0.008 A 
ATOM     21  C   UNL d   1     -49.817  13.468  22.286  0.00  0.00     0.065 A 
ATOM     22  C   UNL d   1     -49.513  13.357  23.041  0.00  0.00     0.008 A 
ATOM     23  C   UNL d   1     -48.696  13.305  23.160  0.00  0.00     0.018 A 
BRANCH  21  24
ATOM     24  C   UNL d   1     -50.630  13.519  22.171  0.00  0.00     0.211 C 
ATOM     25  O   UNL d   1     -51.064  14.110  22.556  0.00  0.00    -0.644 OA
ATOM     26  O   UNL d   1     -51.014  12.986  21.675  0.00  0.00    -0.644 OA
ENDBRANCH  21  24
ENDBRANCH   3  18
TORSDOF 3
ENDMDL
MODEL 3
REMARK VINA RESULT:      -7.5      8.420     10.043
REMARK  3 active torsions:
REMARK  status: ('A' for Active; 'I' for Inactive)
REMARK    1  A    between atoms: C_2  and  C_1 
REMARK    2  A    between atoms: C_13  and  N_4 
REMARK    3  A    between atoms: C_12  and  C_15 
ROOT
ATOM      1  C   UNL d   1     -39.620  14.608  18.808  0.00  0.00     0.106 A 
ATOM      2  C   UNL d   1     -40.391  14.524  19.899  0.00  0.00     0.206 A 
ATOM      3  N   UNL d   1     -39.638  14.759  20.140  0.00  0.00    -0.281 N 
ATOM      4  N   UNL d   1     -40.388  14.429  19.076  0.00  0.00    -0.217 NA
ATOM      5  C   UNL d   1     -39.161  14.811  19.468  0.00  0.00     0.102 A 
ATOM      6  S   UNL d   1     -41.040  14.404  20.392  0.00  0.00    -0.038 SA
ENDROOT
BRANCH   1   7
ATOM      7  C   UNL d   1     -39.365  14.587  18.029  0.00  0.00     0.083 A 
ATOM      8  C   UNL d   1     -39.567  15.204  17.512  0.00  0.00     0.302 A 
ATOM      9  O   UNL d   1     -39.306  15.180  16.721  0.00  0.00    -0.273 OA
ATOM     10  O   UNL d   1     -40.022  15.839  17.775  0.00  0.00    -0.259 OA
ATOM     11  C   UNL d   1     -38.850  14.548  16.450  0.00  0.00     0.103 A 
ATOM     12  C   UNL d   1     -38.648  13.931  16.968  0.00  0.00     0.023 A 
ATOM     13  C   UNL d   1     -38.596  14.530  15.669  0.00  0.00     0.025 A 
ATOM     14  C   UNL d   1     -38.907  13.949  17.763  0.00  0.00     0.009 A 
ATOM     15  C   UNL d   1     -38.194  13.301  16.700  0.00  0.00     0.002 A 
ATOM     16  C   UNL d   1     -37.940  13.283  15.918  0.00  0.00     0.000 A 
ATOM     17  C   UNL d   1     -38.141  13.900  15.401  0.00  0.00     0.002 A 
ENDBRANCH   1   7
BRANCH   3  18
ATOM     18  C   UNL d   1     -39.407  14.912  20.910  0.00  0.00     0.066 A 
ATOM     19  C   UNL d   1     -39.071  14.308  21.372  0.00  0.00     0.018 A 
ATOM     20  C   UNL d   1     -38.838  14.458  22.147  0.00  0.00     0.008 A 
ATOM     21  C   UNL d   1     -38.938  15.217  22.470  0.00  0.00     0.065 A 
ATOM     22  C   UNL d   1     -39.271  15.814  22.012  0.00  0.00     0.008 A 
ATOM     23  C   UNL d   1     -39.505  15.663  21.233  0.00  0.00     0.018 A 
BRANCH  21  24
ATOM     24  C   UNL d   1     -38.706  15.371  23.244  0.00  0.00     0.211 C 
ATOM     25  O   UNL d   1     -39.126  15.922  23.698  0.00  0.00    -0.644 OA
ATOM     26  O   UNL d   1     -38.059  14.979  23.569  0.00  0.00    -0.644 OA
ENDBRANCH  21  24
ENDBRANCH   3  18
TORSDOF 3
ENDMDL
MODEL 4
REMARK VINA RESULT:      -7.2      8.746      9.852
REMARK  3 active torsions:
REMARK  status: ('A' for Active; 'I' for Inactive)
REMARK    1  A    between atoms: C_2  and  C_1 
REMARK    2  A    between atoms: C_13  and  N_4 
REMARK    3  A    between atoms: C_12  and  C_15 
ROOT
ATOM      1  C   UNL d   1     -39.584  14.524  19.747  0.00  0.00     0.106 A 
ATOM      2  C   UNL d   1     -40.247  14.503  18.584  0.00  0.00     0.206 A 
ATOM      3  N   UNL d   1     -39.442  14.458  18.415  0.00  0.00    -0.281 N 
ATOM      4  N   UNL d   1     -40.344  14.544  19.406  0.00  0.00    -0.217 NA
ATOM      5  C   UNL d   1     -39.031  14.471  19.131  0.00  0.00     0.102 A 
ATOM      6  S   UNL d   1     -40.858  14.507  18.031  0.00  0.00    -0.038 SA
ENDROOT
BRANCH   1   7
ATOM      7  C   UNL d   1     -39.415  14.552  20.548  0.00  0.00     0.083 A 
ATOM      8  C   UNL d   1     -39.577  15.242  20.981  0.00  0.00     0.302 A 
ATOM      9  O   UNL d   1     -39.404  15.267  21.796  0.00  0.00    -0.273 OA
ATOM     10  O   UNL d   1     -39.908  15.900  20.610  0.00  0.00    -0.259 OA
ATOM     11  C   UNL d   1     -39.072  14.612  22.173  0.00  0.00     0.103 A 
ATOM     12  C   UNL d   1     -38.910  13.923  21.740  0.00  0.00     0.023 A 
ATOM     13  C   UNL d   1     -38.903  14.643  22.976  0.00  0.00     0.025 A 
ATOM     14  C   UNL d   1     -39.081  13.890  20.922  0.00  0.00     0.009 A 
ATOM     15  C   UNL d   1     -38.580  13.270  22.114  0.00  0.00     0.002 A 
ATOM     16  C   UNL d   1     -38.411  13.300  22.918  0.00  0.00     0.000 A 
ATOM     17  C   UNL d   1     -38.573  13.990  23.351  0.00  0.00     0.002 A 
ENDBRANCH   1   7
BRANCH   3  18
ATOM     18  C   UNL d   1     -39.111  14.410  17.669  0.00  0.00     0.066 A 
ATOM     19  C   UNL d   1     -38.982  15.101  17.224  0.00  0.00     0.018 A 
ATOM     20  C   UNL d   1     -38.649  15.055  16.473  0.00  0.00     0.008 A 
ATOM     21  C   UNL d   1     -38.442  14.316  16.155  0.00  0.00     0.065 A 
ATOM     22  C   UNL d   1     -38.570  13.634  16.596  0.00  0.00     0.008 A 
ATOM     23  C   UNL d   1     -38.904  13.679  17.351  0.00  0.00     0.018 A 
BRANCH  21  24
ATOM     24  C   UNL d   1     -38.109  14.268  15.405  0.00  0.00     0.211 C 
ATOM     25  O   UNL d   1     -37.940  14.961  14.984  0.00  0.00    -0.644 OA
ATOM     26  O   UNL d   1     -37.944  13.534  15.069  0.00  0.00    -0.644 OA
ENDBRANCH  21  24
ENDBRANCH   3  18
TORSDOF 3
ENDMDL
MODEL 5
REMARK VINA RESULT:      -7.2      1.187      5.236
REMARK  3 active torsions:
REMARK  status: ('A' for Active; 'I' for Inactive)
REMARK    1  A    between atoms: C_2  and  C_1 
REMARK    2  A    between atoms: C_13  and  N_4 
REMARK    3  A    between atoms: C_12  and  C_15 
ROOT
ATOM      1  C   UNL d   1     -46.802  12.538  22.812  0.00  0.00     0.106 A 
ATOM      2  C   UNL d   1     -48.104  12.347  23.058  0.00  0.00     0.206 A 
ATOM      3  N   UNL d   1     -47.989  13.153  22.926  0.00  0.00    -0.281 N 
ATOM      4  N   UNL d   1     -47.374  11.959  22.989  0.00  0.00    -0.217 NA
ATOM      5  C   UNL d   1     -47.186  13.272  22.775  0.00  0.00     0.102 A 
ATOM      6  S   UNL d   1     -48.823  11.983  23.229  0.00  0.00    -0.038 SA
ENDROOT
BRANCH   1   7
ATOM      7  C   UNL d   1     -46.001  12.404  22.696  0.00  0.00     0.083 A 
ATOM      8  C   UNL d   1     -45.611  11.821  23.140  0.00  0.00     0.302 A 
ATOM      9  O   UNL d   1     -44.798  11.687  23.020  0.00  0.00    -0.273 OA
ATOM     10  O   UNL d   1     -46.024  11.375  23.698  0.00  0.00    -0.259 OA
ATOM     11  C   UNL d   1     -44.379  12.130  22.464  0.00  0.00     0.103 A 
ATOM     12  C   UNL d   1     -44.769  12.713  22.020  0.00  0.00     0.023 A 
ATOM     13  C   UNL d   1     -43.577  11.994  22.350  0.00  0.00     0.025 A 
ATOM     14  C   UNL d   1     -45.586  12.853  22.135  0.00  0.00     0.009 A 
ATOM     15  C   UNL d   1     -44.354  13.155  21.465  0.00  0.00     0.002 A 
ATOM     16  C   UNL d   1     -43.551  13.019  21.351  0.00  0.00     0.000 A 
ATOM     17  C   UNL d   1     -43.161  12.436  21.795  0.00  0.00     0.002 A 
ENDBRANCH   1   7
BRANCH   3  18
ATOM     18  C   UNL d   1     -48.569  13.728  22.944  0.00  0.00     0.066 A 
ATOM     19  C   UNL d   1     -48.848  14.017  23.672  0.00  0.00     0.018 A 
ATOM     20  C   UNL d   1     -49.432  14.596  23.693  0.00  0.00     0.008 A 
ATOM     21  C   UNL d   1     -49.745  14.895  22.984  0.00  0.00     0.065 A 
ATOM     22  C   UNL d   1     -49.468  14.610  22.264  0.00  0.00     0.008 A 
ATOM     23  C   UNL d   1     -48.881  14.027  22.242  0.00  0.00     0.018 A 
BRANCH  21  24
ATOM     24  C   UNL d   1     -50.328  15.475  23.002  0.00  0.00     0.211 C 
ATOM     25  O   UNL d   1     -50.443  15.922  23.689  0.00  0.00    -0.644 OA
ATOM     26  O   UNL d   1     -50.799  15.612  22.340  0.00  0.00    -0.644 OA
ENDBRANCH  21  24
ENDBRANCH   3  18
TORSDOF 3
ENDMDL
MODEL 6
REMARK VINA RESULT:      -7.0      1.486      2.086
REMARK  3 active torsions:
REMARK  status: ('A' for Active; 'I' for Inactive)
REMARK    1  A    between atoms: C_2  and  C_1 
REMARK    2  A    between atoms: C_13  and  N_4 
REMARK    3  A    between atoms: C_12  and  C_15 
ROOT
ATOM      1  C   UNL d   1     -47.363  13.569  22.451  0.00  0.00     0.106 A 
ATOM      2  C   UNL d   1     -46.025  13.578  22.430  0.00  0.00     0.206 A 
ATOM      3  N   UNL d   1     -46.267  12.839  22.705  0.00  0.00    -0.281 N 
ATOM      4  N   UNL d   1     -46.697  14.036  22.271  0.00  0.00    -0.217 NA
ATOM      5  C   UNL d   1     -47.092  12.832  22.719  0.00  0.00     0.102 A 
ATOM      6  S   UNL d   1     -45.245  13.825  22.329  0.00  0.00    -0.038 SA
ENDROOT
BRANCH   1   7
ATOM      7  C   UNL d   1     -48.147  13.799  22.377  0.00  0.00     0.083 A 
ATOM      8  C   UNL d   1     -48.405  14.505  22.729  0.00  0.00     0.302 A 
ATOM      9  O   UNL d   1     -49.202  14.736  22.652  0.00  0.00    -0.273 OA
ATOM     10  O   UNL d   1     -47.879  14.978  23.153  0.00  0.00    -0.259 OA
ATOM     11  C   UNL d   1     -49.734  14.267  22.229  0.00  0.00     0.103 A 
ATOM     12  C   UNL d   1     -49.475  13.561  21.878  0.00  0.00     0.023 A 
ATOM     13  C   UNL d   1     -50.518  14.501  22.157  0.00  0.00     0.025 A 
ATOM     14  C   UNL d   1     -48.677  13.323  21.951  0.00  0.00     0.009 A 
ATOM     15  C   UNL d   1     -50.003  13.094  21.456  0.00  0.00     0.002 A 
ATOM     16  C   UNL d   1     -50.789  13.327  21.384  0.00  0.00     0.000 A 
ATOM     17  C   UNL d   1     -51.047  14.033  21.735  0.00  0.00     0.002 A 
ENDBRANCH   1   7
BRANCH   3  18
ATOM     18  C   UNL d   1     -45.774  12.225  22.924  0.00  0.00     0.066 A 
ATOM     19  C   UNL d   1     -45.000  12.184  22.624  0.00  0.00     0.018 A 
ATOM     20  C   UNL d   1     -44.501  11.567  22.843  0.00  0.00     0.008 A 
ATOM     21  C   UNL d   1     -44.772  10.981  23.367  0.00  0.00     0.065 A 
ATOM     22  C   UNL d   1     -45.537  11.023  23.663  0.00  0.00     0.008 A 
ATOM     23  C   UNL d   1     -46.039  11.643  23.443  0.00  0.00     0.018 A 
BRANCH  21  24
ATOM     24  C   UNL d   1     -44.275  10.364  23.587  0.00  0.00     0.211 C 
ATOM     25  O   UNL d   1     -43.467  10.505  23.698  0.00  0.00    -0.644 OA
ATOM     26  O   UNL d   1     -44.578   9.606  23.698  0.00  0.00    -0.644 OA
ENDBRANCH  21  24
ENDBRANCH   3  18
TORSDOF 3
ENDMDL
MODEL 7
REMARK VINA RESULT:      -6.7      8.696      9.397
REMARK  3 active torsions:
REMARK  status: ('A' for Active; 'I' for Inactive)
REMARK    1  A    between atoms: C_2  and  C_1 
REMARK    2  A    between atoms: C_13  and  N_4 
REMARK    3  A    between atoms: C_12  and  C_15 
ROOT
ATOM      1  C   UNL d   1     -39.376  15.193  18.760  0.00  0.00     0.106 A 
ATOM      2  C   UNL d   1     -38.524  15.490  19.749  0.00  0.00     0.206 A 
ATOM      3  N   UNL d   1     -38.945  14.817  19.973  0.00  0.00    -0.281 N 
ATOM      4  N   UNL d   1     -38.785  15.729  18.999  0.00  0.00    -0.217 NA
ATOM      5  C   UNL d   1     -39.470  14.633  19.364  0.00  0.00     0.102 A 
ATOM      6  S   UNL d   1     -37.940  15.866  20.193  0.00  0.00    -0.038 SA
ENDROOT
BRANCH   1   7
ATOM      7  C   UNL d   1     -39.789  15.217  18.052  0.00  0.00     0.083 A 
ATOM      8  C   UNL d   1     -39.446  14.908  17.362  0.00  0.00     0.302 A 
ATOM      9  O   UNL d   1     -39.868  14.933  16.645  0.00  0.00    -0.273 OA
ATOM     10  O   UNL d   1     -38.690  14.577  17.384  0.00  0.00    -0.259 OA
ATOM     11  C   UNL d   1     -40.624  15.262  16.617  0.00  0.00     0.103 A 
ATOM     12  C   UNL d   1     -40.968  15.571  17.306  0.00  0.00     0.023 A 
ATOM     13  C   UNL d   1     -41.036  15.284  15.906  0.00  0.00     0.025 A 
ATOM     14  C   UNL d   1     -40.549  15.549  18.030  0.00  0.00     0.009 A 
ATOM     15  C   UNL d   1     -41.720  15.900  17.280  0.00  0.00     0.002 A 
ATOM     16  C   UNL d   1     -42.133  15.922  16.569  0.00  0.00     0.000 A 
ATOM     17  C   UNL d   1     -41.790  15.613  15.879  0.00  0.00     0.002 A 
ENDBRANCH   1   7
BRANCH   3  18
ATOM     18  C   UNL d   1     -38.854  14.408  20.675  0.00  0.00     0.066 A 
ATOM     19  C   UNL d   1     -39.387  14.532  21.301  0.00  0.00     0.018 A 
ATOM     20  C   UNL d   1     -39.299  14.122  22.009  0.00  0.00     0.008 A 
ATOM     21  C   UNL d   1     -38.675  13.580  22.099  0.00  0.00     0.065 A 
ATOM     22  C   UNL d   1     -38.149  13.458  21.479  0.00  0.00     0.008 A 
ATOM     23  C   UNL d   1     -38.237  13.870  20.768  0.00  0.00     0.018 A 
BRANCH  21  24
ATOM     24  C   UNL d   1     -38.585  13.169  22.806  0.00  0.00     0.211 C 
ATOM     25  O   UNL d   1     -37.949  12.646  22.899  0.00  0.00    -0.644 OA
ATOM     26  O   UNL d   1     -39.123  13.273  23.420  0.00  0.00    -0.644 OA
ENDBRANCH  21  24
ENDBRANCH   3  18
TORSDOF 3
ENDMDL
