MODEL 1
REMARK VINA RESULT:      15.4      0.000      0.000
REMARK  2 active torsions:
REMARK  status: ('A' for Active; 'I' for Inactive)
REMARK       I    between atoms: N_3  and  C_1 
REMARK    1  A    between atoms: O_4  and  C_1 
REMARK    2  A    between atoms: C_6  and  O_4 
ROOT
ATOM      1  C   UNL d   1      46.429 -18.657  43.855  0.00  0.00     0.105 A 
ATOM      2  C   UNL d   1      46.535 -19.277  43.325  0.00  0.00     0.030 A 
ATOM      3  C   UNL d   1      46.319 -17.877  43.571  0.00  0.00     0.122 A 
ATOM      4  N   UNL d   1      46.431 -18.802  44.673  0.00  0.00    -0.242 NA
ATOM      5  C   UNL d   1      46.533 -19.131  42.511  0.00  0.00     0.059 A 
ATOM      6  C   UNL d   1      46.317 -17.733  42.764  0.00  0.00     0.027 A 
ATOM      7  C   UNL d   1      46.423 -18.350  42.227  0.00  0.00     0.013 A 
ATOM      8 CL   UNL d   1      46.640 -19.754  41.972  0.00  0.00    -0.082 Cl
ATOM      9  C   UNL d   1      46.644 -20.046  43.604  0.00  0.00     0.004 A 
ATOM     10  C   UNL d   1      46.540 -19.571  44.952  0.00  0.00     0.099 A 
ATOM     11  C   UNL d   1      46.647 -20.195  44.414  0.00  0.00     0.021 A 
ENDROOT
BRANCH   3  12
ATOM     12  O   UNL d   1      46.211 -17.246  44.107  0.00  0.00    -0.257 OA
BRANCH  12  13
ATOM     13  C   UNL d   1      45.571 -16.716  44.016  0.00  0.00     0.378 C 
ATOM     14  N   UNL d   1      45.622 -15.948  44.291  0.00  0.00    -0.247 N 
ATOM     15  C   UNL d   1      46.312 -15.688  44.664  0.00  0.00     0.112 A 
ATOM     16  C   UNL d   1      44.988 -15.429  44.198  0.00  0.00     0.112 A 
ATOM     17  C   UNL d   1      46.355 -14.913  44.937  0.00  0.00     0.142 A 
ATOM     18  O   UNL d   1      45.726 -14.397  44.846  0.00  0.00    -0.300 OA
ATOM     19  C   UNL d   1      45.036 -14.657  44.473  0.00  0.00     0.142 A 
ATOM     20  O   UNL d   1      44.873 -16.980  43.639  0.00  0.00    -0.237 OA
ENDBRANCH  12  13
ENDBRANCH   3  12
TORSDOF 2
ENDMDL
