MODEL 1
REMARK VINA RESULT:      10.8      0.000      0.000
REMARK  1 active torsions:
REMARK  status: ('A' for Active; 'I' for Inactive)
REMARK    1  A    between atoms: C_6  and  N_1 
ROOT
ATOM      1  N   UNL d   1     -51.273  25.358  33.314  0.00  0.00    -0.210 N 
ATOM      2  C   UNL d   1     -51.541  26.136  33.312  0.00  0.00     0.196 A 
ATOM      3  N   UNL d   1     -50.442  25.372  33.316  0.00  0.00    -0.161 NA
ATOM      4  C   UNL d   1     -50.884  26.631  33.314  0.00  0.00     0.127 A 
ATOM      5  C   UNL d   1     -50.207  26.168  33.316  0.00  0.00     0.134 A 
ATOM      6  C   UNL d   1     -50.902  27.461  33.313  0.00  0.00     0.106 C 
ATOM      7  N   UNL d   1     -50.916  28.291  33.312  0.00  0.00    -0.191 NA
ATOM      8  N   UNL d   1     -52.351  26.375  33.310  0.00  0.00    -0.126 N 
ENDROOT
BRANCH   1   9
ATOM      9  C   UNL d   1     -51.711  24.654  33.313  0.00  0.00     0.085 A 
ATOM     10  C   UNL d   1     -52.535  24.694  33.320  0.00  0.00     0.019 A 
ATOM     11  C   UNL d   1     -52.978  23.988  33.320  0.00  0.00     0.002 A 
ATOM     12  C   UNL d   1     -53.816  24.016  33.326  0.00  0.00     0.000 C 
ATOM     13  C   UNL d   1     -52.593  23.261  33.313  0.00  0.00     0.000 A 
ATOM     14  C   UNL d   1     -51.770  23.225  33.306  0.00  0.00     0.002 A 
ATOM     15  C   UNL d   1     -51.326  23.927  33.307  0.00  0.00     0.019 A 
ENDBRANCH   1   9
TORSDOF 1
ENDMDL
