MODEL 1
REMARK VINA RESULT:      -6.8      0.000      0.000
REMARK  1 active torsions:
REMARK  status: ('A' for Active; 'I' for Inactive)
REMARK    1  A    between atoms: C_4  and  C_1 
REMARK       I    between atoms: N_5  and  C_1 
ROOT
ATOM      1  N   UNL d   1      54.082  32.124  53.824  0.00  0.00    -0.242 NA
ATOM      2  C   UNL d   1      54.523  33.363  54.828  0.00  0.00     0.062 A 
ATOM      3  C   UNL d   1      54.616  32.700  53.568  0.00  0.00     0.099 A 
ATOM      4  C   UNL d   1      53.769  32.174  54.589  0.00  0.00     0.099 A 
ATOM      5  C   UNL d   1      53.989  32.791  55.090  0.00  0.00     0.025 A 
ATOM      6  C   UNL d   1      54.836  33.317  54.069  0.00  0.00     0.025 A 
ENDROOT
BRANCH   2   7
ATOM      7  C   UNL d   1      54.688  33.727  55.049  0.00  0.00     0.298 C 
ATOM      8  O   UNL d   1      55.357  33.876  55.294  0.00  0.00    -0.264 OA
ATOM      9  N   UNL d   1      54.221  34.311  55.214  0.00  0.00    -0.085 NA
ATOM     10  N   UNL d   1      53.769  34.114  55.001  0.00  0.00    -0.019 N 
ENDBRANCH   2   7
TORSDOF 1
ENDMDL
MODEL 2
REMARK VINA RESULT:      -6.4      1.118      1.973
REMARK  1 active torsions:
REMARK  status: ('A' for Active; 'I' for Inactive)
REMARK    1  A    between atoms: C_4  and  C_1 
REMARK       I    between atoms: N_5  and  C_1 
ROOT
ATOM      1  N   UNL d   1      54.228  34.350  55.115  0.00  0.00    -0.242 NA
ATOM      2  C   UNL d   1      53.860  32.901  54.403  0.00  0.00     0.062 A 
ATOM      3  C   UNL d   1      54.764  33.722  55.142  0.00  0.00     0.099 A 
ATOM      4  C   UNL d   1      53.503  34.245  54.727  0.00  0.00     0.099 A 
ATOM      5  C   UNL d   1      53.320  33.523  54.372  0.00  0.00     0.025 A 
ATOM      6  C   UNL d   1      54.581  33.000  54.787  0.00  0.00     0.025 A 
ENDROOT
BRANCH   2   7
ATOM      7  C   UNL d   1      53.826  32.479  54.231  0.00  0.00     0.298 C 
ATOM      8  O   UNL d   1      53.801  31.830  54.560  0.00  0.00    -0.264 OA
ATOM      9  N   UNL d   1      53.783  32.383  53.473  0.00  0.00    -0.085 NA
ATOM     10  N   UNL d   1      53.808  32.898  53.326  0.00  0.00    -0.019 N 
ENDBRANCH   2   7
TORSDOF 1
ENDMDL
